data_HCORuIr
_audit_creation_method        'pos2cif.py'        
_cell_length_a                6.36215693          
_cell_length_b                6.38448299          
_cell_length_c                22.02159841         
_cell_angle_alpha             90.0                
_cell_angle_beta              90.0                
_cell_angle_gamma             90.0                
_symmetry_space_group_H-M     'P1'                
_symmetry_Int_Tables_number   '1'                 
_symmetry_cell_setting        'triclinic'         
loop_                         
_symmetry_equiv_pos_as_xyz    
x,y,z                         

loop_                         
_atom_site_label              
_atom_site_type_symbol        
_atom_site_occupancy          
_atom_site_fract_x            
_atom_site_fract_y            
_atom_site_fract_z            
_atom_site_U_iso_or_equiv     
H1   H    1.0     0.59807601          0.1905789           0.60400108          0.0     
H2   H    1.0     0.43992539          0.42545679          0.60555582          0.0     
H3   H    1.0     0.72103139          0.44616562          0.60630334          0.0     
C4   C    1.0     0.5870903           0.35480919          0.58950362          0.0     
O5   O    1.0     0.08911             0.35546             0.0                 0.0     
O6   O    1.0     0.58911             0.35546             0.0                 0.0     
O7   O    1.0     0.33911             0.04693             0.05551             0.0     
O8   O    1.0     0.83911             0.04693             0.05551             0.0     
O9   O    1.0     0.33911             0.66399             0.05551             0.0     
O10  O    1.0     0.83911             0.66399             0.05551             0.0     
O11  O    1.0     0.08911             0.35546             0.11102             0.0     
O12  O    1.0     0.58911             0.35546             0.11102             0.0     
O13  O    1.0     0.58911             -0.14454            0.14496             0.0     
O14  O    1.0     0.08911             -0.14454            0.14496             0.0     
O15  O    1.0     0.33911             0.16399             0.20047             0.0     
O16  O    1.0     0.83911             0.16399             0.20047             0.0     
O17  O    1.0     0.33911             0.54693             0.20047             0.0     
O18  O    1.0     0.83911             0.54693             0.20047             0.0     
O19  O    1.0     0.08911             -0.14454            0.25598             0.0     
O20  O    1.0     0.58911             -0.14454            0.25598             0.0     
O21  O    1.0     0.08933095          0.35612874          0.29003923          0.0     
O22  O    1.0     0.58930205          0.35614096          0.28929517          0.0     
O23  O    1.0     0.33971349          0.04723978          0.34584391          0.0     
O24  O    1.0     0.83885364          0.04721726          0.34582883          0.0     
O25  O    1.0     0.33959396          0.66440636          0.34613791          0.0     
O26  O    1.0     0.83890328          0.66439056          0.34613346          0.0     
O27  O    1.0     0.08936756          0.35412563          0.39996564          0.0     
O28  O    1.0     0.58938427          0.35541262          0.4000147           0.0     
O29  O    1.0     0.08913559          -0.1431747          0.43605266          0.0     
O30  O    1.0     0.58911664          -0.14327909         0.43606657          0.0     
O31  O    1.0     0.34134451          0.16628261          0.49380726          0.0     
O32  O    1.0     0.83691362          0.16634261          0.49385694          0.0     
O33  O    1.0     0.34151526          0.54616057          0.4927995           0.0     
O34  O    1.0     0.83674826          0.54610419          0.49290962          0.0     
O35  O    1.0     0.08902779          -0.14543279         0.5465118           0.0     
O36  O    1.0     0.58908342          -0.14558527         0.54623722          0.0     
Ru37 Ru   1.0     0.58906663          0.35641313          0.49545503          0.0     
Ir38 Ir   1.0     0.33911             0.35546             0.05551             0.0     
Ir39 Ir   1.0     0.83911             0.35546             0.05551             0.0     
Ir40 Ir   1.0     0.08911             -0.14454            0.05551             0.0     
Ir41 Ir   1.0     0.58911             -0.14454            0.05551             0.0     
Ir42 Ir   1.0     0.08911             0.35546             0.20047             0.0     
Ir43 Ir   1.0     0.58911             0.35546             0.20047             0.0     
Ir44 Ir   1.0     0.33911             -0.14454            0.20047             0.0     
Ir45 Ir   1.0     0.83911             -0.14454            0.20047             0.0     
Ir46 Ir   1.0     0.83658004          0.35577997          0.34510084          0.0     
Ir47 Ir   1.0     0.34209995          0.35579922          0.34511768          0.0     
Ir48 Ir   1.0     0.0892265           -0.14409522         0.34639312          0.0     
Ir49 Ir   1.0     0.58922247          -0.14415538         0.34649665          0.0     
Ir50 Ir   1.0     0.08915097          0.35623619          0.48844451          0.0     
Ir51 Ir   1.0     0.33887332          -0.14392778         0.49274097          0.0     
Ir52 Ir   1.0     0.83926015          -0.14393928         0.4927331           0.0     
