data_HCOOsIr
_audit_creation_method        'pos2cif.py'        
_cell_length_a                6.36215693          
_cell_length_b                6.38448299          
_cell_length_c                22.02159841         
_cell_angle_alpha             90.0                
_cell_angle_beta              90.0                
_cell_angle_gamma             90.0                
_symmetry_space_group_H-M     'P1'                
_symmetry_Int_Tables_number   '1'                 
_symmetry_cell_setting        'triclinic'         
loop_                         
_symmetry_equiv_pos_as_xyz    
x,y,z                         

loop_                         
_atom_site_label              
_atom_site_type_symbol        
_atom_site_occupancy          
_atom_site_fract_x            
_atom_site_fract_y            
_atom_site_fract_z            
_atom_site_U_iso_or_equiv     
H1   H    1.0     0.59801136          0.19172942          0.60532859          0.0     
H2   H    1.0     0.44071976          0.42510699          0.60675394          0.0     
H3   H    1.0     0.72021489          0.44594235          0.60753767          0.0     
C4   C    1.0     0.58704219          0.35504657          0.58968347          0.0     
O5   O    1.0     0.08911             0.35546             0.0                 0.0     
O6   O    1.0     0.58911             0.35546             0.0                 0.0     
O7   O    1.0     0.33911             0.04693             0.05551             0.0     
O8   O    1.0     0.83911             0.04693             0.05551             0.0     
O9   O    1.0     0.33911             0.66399             0.05551             0.0     
O10  O    1.0     0.83911             0.66399             0.05551             0.0     
O11  O    1.0     0.08911             0.35546             0.11102             0.0     
O12  O    1.0     0.58911             0.35546             0.11102             0.0     
O13  O    1.0     0.58911             -0.14454            0.14496             0.0     
O14  O    1.0     0.08911             -0.14454            0.14496             0.0     
O15  O    1.0     0.33911             0.16399             0.20047             0.0     
O16  O    1.0     0.83911             0.16399             0.20047             0.0     
O17  O    1.0     0.33911             0.54693             0.20047             0.0     
O18  O    1.0     0.83911             0.54693             0.20047             0.0     
O19  O    1.0     0.08911             -0.14454            0.25598             0.0     
O20  O    1.0     0.58911             -0.14454            0.25598             0.0     
O21  O    1.0     0.08929389          0.35607714          0.29000754          0.0     
O22  O    1.0     0.58928434          0.35609389          0.28930409          0.0     
O23  O    1.0     0.33973279          0.04709094          0.34574512          0.0     
O24  O    1.0     0.83881006          0.04707123          0.34573497          0.0     
O25  O    1.0     0.33962073          0.66459881          0.34605181          0.0     
O26  O    1.0     0.83888162          0.66458343          0.34605161          0.0     
O27  O    1.0     0.08935218          0.35395598          0.40004872          0.0     
O28  O    1.0     0.58933381          0.35543167          0.40058813          0.0     
O29  O    1.0     0.08915742          -0.14294865         0.43549276          0.0     
O30  O    1.0     0.58913423          -0.14315274         0.43561504          0.0     
O31  O    1.0     0.3428099           0.16741117          0.49342257          0.0     
O32  O    1.0     0.83544898          0.16746555          0.49345196          0.0     
O33  O    1.0     0.34292806          0.54519139          0.49236261          0.0     
O34  O    1.0     0.83536361          0.54516778          0.49245165          0.0     
O35  O    1.0     0.08910535          -0.14552145         0.54583144          0.0     
O36  O    1.0     0.58915553          -0.14561921         0.54573845          0.0     
Os37 Os   1.0     0.58902171          0.35654803          0.49522234          0.0     
Ir38 Ir   1.0     0.33911             0.35546             0.05551             0.0     
Ir39 Ir   1.0     0.83911             0.35546             0.05551             0.0     
Ir40 Ir   1.0     0.08911             -0.14454            0.05551             0.0     
Ir41 Ir   1.0     0.58911             -0.14454            0.05551             0.0     
Ir42 Ir   1.0     0.08911             0.35546             0.20047             0.0     
Ir43 Ir   1.0     0.58911             0.35546             0.20047             0.0     
Ir44 Ir   1.0     0.33911             -0.14454            0.20047             0.0     
Ir45 Ir   1.0     0.83911             -0.14454            0.20047             0.0     
Ir46 Ir   1.0     0.83728589          0.35578463          0.34509852          0.0     
Ir47 Ir   1.0     0.3413444           0.355799            0.34510625          0.0     
Ir48 Ir   1.0     0.08922043          -0.14406527         0.34609275          0.0     
Ir49 Ir   1.0     0.58922025          -0.14413001         0.34619616          0.0     
Ir50 Ir   1.0     0.08911367          0.35633539          0.4889623           0.0     
Ir51 Ir   1.0     0.33895582          -0.14388332         0.49208437          0.0     
Ir52 Ir   1.0     0.8393206           -0.14389294         0.49207693          0.0     
