data_HCOIrGe
_audit_creation_method        'pos2cif.py'        
_cell_length_a                6.36215693          
_cell_length_b                6.384482994809508   
_cell_length_c                22.021598412435427  
_cell_angle_alpha             90.0                
_cell_angle_beta              90.0                
_cell_angle_gamma             90.0                
_symmetry_space_group_H-M     'P1'                
_symmetry_Int_Tables_number   '1'                 
_symmetry_cell_setting        'triclinic'         
loop_                         
_symmetry_equiv_pos_as_xyz    
x,y,z                         

loop_                         
_atom_site_label              
_atom_site_type_symbol        
_atom_site_occupancy          
_atom_site_fract_x            
_atom_site_fract_y            
_atom_site_fract_z            
_atom_site_U_iso_or_equiv     
H1   H    1.0     0.59779719          0.19025363          0.59914171          0.0     
H2   H    1.0     0.43991553          0.42605659          0.60072182          0.0     
H3   H    1.0     0.72142352          0.44613437          0.60137888          0.0     
C4   C    1.0     0.58696465          0.35487308          0.5853901           0.0     
O5   O    1.0     0.08911189          0.35545641          0.0                 0.0     
O6   O    1.0     0.58911189          0.35545641          0.0                 0.0     
O7   O    1.0     0.33911189          0.04692641          0.05551082          0.0     
O8   O    1.0     0.83911189          0.04692641          0.05551082          0.0     
O9   O    1.0     0.33911189          0.66398641          0.05551082          0.0     
O10  O    1.0     0.83911189          0.66398641          0.05551082          0.0     
O11  O    1.0     0.08911189          0.35545641          0.11102164          0.0     
O12  O    1.0     0.58911189          0.35545641          0.11102164          0.0     
O13  O    1.0     0.08911189          -0.14454359         0.14495957          0.0     
O14  O    1.0     0.58911189          -0.14454359         0.14495957          0.0     
O15  O    1.0     0.33911189          0.16398641          0.20047039          0.0     
O16  O    1.0     0.83911189          0.16398641          0.20047039          0.0     
O17  O    1.0     0.33911189          0.54692641          0.20047039          0.0     
O18  O    1.0     0.83911189          0.54692641          0.20047039          0.0     
O19  O    1.0     0.08911189          -0.14454359         0.25598121          0.0     
O20  O    1.0     0.58911189          -0.14454359         0.25598121          0.0     
O21  O    1.0     0.08926548          0.35602204          0.28967228          0.0     
O22  O    1.0     0.58926568          0.35594832          0.29014647          0.0     
O23  O    1.0     0.3398365           0.04734526          0.34564558          0.0     
O24  O    1.0     0.83870487          0.04733045          0.34563581          0.0     
O25  O    1.0     0.33980986          0.66411667          0.34588207          0.0     
O26  O    1.0     0.83867552          0.66411381          0.34588521          0.0     
O27  O    1.0     0.08933248          0.35423571          0.39864127          0.0     
O28  O    1.0     0.58934675          0.35468753          0.40417679          0.0     
O29  O    1.0     0.08908726          -0.14267722         0.43492042          0.0     
O30  O    1.0     0.58921474          -0.1428124          0.43474427          0.0     
O31  O    1.0     0.33830399          0.16494504          0.48952791          0.0     
O32  O    1.0     0.83978336          0.16511691          0.48978591          0.0     
O33  O    1.0     0.33842097          0.54779792          0.48782704          0.0     
O34  O    1.0     0.8397243           0.54764628          0.48814363          0.0     
O35  O    1.0     0.08922086          -0.14657754         0.54465135          0.0     
O36  O    1.0     0.58907885          -0.14581125         0.54428732          0.0     
Ir37 Ir   1.0     0.33911189          0.35545641          0.05551082          0.0     
Ir38 Ir   1.0     0.83911189          0.35545641          0.05551082          0.0     
Ir39 Ir   1.0     0.08911189          -0.14454359         0.05551082          0.0     
Ir40 Ir   1.0     0.58911189          -0.14454359         0.05551082          0.0     
Ir41 Ir   1.0     0.08911189          0.35545641          0.20047039          0.0     
Ir42 Ir   1.0     0.58911189          0.35545641          0.20047039          0.0     
Ir43 Ir   1.0     0.33911189          -0.14454359         0.20047039          0.0     
Ir44 Ir   1.0     0.83911189          -0.14454359         0.20047039          0.0     
Ir45 Ir   1.0     0.34195579          0.35566852          0.34564414          0.0     
Ir46 Ir   1.0     0.83665089          0.35565775          0.34564675          0.0     
Ir47 Ir   1.0     0.08921334          -0.14420005         0.34582204          0.0     
Ir48 Ir   1.0     0.58922711          -0.14417815         0.34588199          0.0     
Ir49 Ir   1.0     0.08892204          0.35608965          0.48510516          0.0     
Ir50 Ir   1.0     0.33880597          -0.14391661         0.49078657          0.0     
Ir51 Ir   1.0     0.83945953          -0.14390655         0.49082536          0.0     
Ge52 Ge   1.0     0.58880858          0.35734003          0.49511279          0.0     
