data_HCOIrMo
_audit_creation_method        'pos2cif.py'        
_cell_length_a                6.36215693          
_cell_length_b                6.384482994809508   
_cell_length_c                22.021598412435427  
_cell_angle_alpha             90.0                
_cell_angle_beta              90.0                
_cell_angle_gamma             90.0                
_symmetry_space_group_H-M     'P1'                
_symmetry_Int_Tables_number   '1'                 
_symmetry_cell_setting        'triclinic'         
loop_                         
_symmetry_equiv_pos_as_xyz    
x,y,z                         

loop_                         
_atom_site_label              
_atom_site_type_symbol        
_atom_site_occupancy          
_atom_site_fract_x            
_atom_site_fract_y            
_atom_site_fract_z            
_atom_site_U_iso_or_equiv     
H1   H    1.0     0.5971416           0.19186877          0.61076881          0.0     
H2   H    1.0     0.43997743          0.42557084          0.61365656          0.0     
H3   H    1.0     0.71995854          0.44585229          0.61434117          0.0     
C4   C    1.0     0.5862272           0.35666607          0.59618679          0.0     
O5   O    1.0     0.08911189          0.35545641          0.0                 0.0     
O6   O    1.0     0.58911189          0.35545641          0.0                 0.0     
O7   O    1.0     0.33911189          0.04692641          0.05551082          0.0     
O8   O    1.0     0.83911189          0.04692641          0.05551082          0.0     
O9   O    1.0     0.33911189          0.66398641          0.05551082          0.0     
O10  O    1.0     0.83911189          0.66398641          0.05551082          0.0     
O11  O    1.0     0.08911189          0.35545641          0.11102164          0.0     
O12  O    1.0     0.58911189          0.35545641          0.11102164          0.0     
O13  O    1.0     0.08911189          -0.14454359         0.14495957          0.0     
O14  O    1.0     0.58911189          -0.14454359         0.14495957          0.0     
O15  O    1.0     0.33911189          0.16398641          0.20047039          0.0     
O16  O    1.0     0.83911189          0.16398641          0.20047039          0.0     
O17  O    1.0     0.33911189          0.54692641          0.20047039          0.0     
O18  O    1.0     0.83911189          0.54692641          0.20047039          0.0     
O19  O    1.0     0.08911189          -0.14454359         0.25598121          0.0     
O20  O    1.0     0.58911189          -0.14454359         0.25598121          0.0     
O21  O    1.0     0.0891726           0.35645379          0.28997034          0.0     
O22  O    1.0     0.58911714          0.35647392          0.28953638          0.0     
O23  O    1.0     0.33979327          0.04744926          0.34586079          0.0     
O24  O    1.0     0.83855582          0.04743386          0.34586828          0.0     
O25  O    1.0     0.33966952          0.66454392          0.34626937          0.0     
O26  O    1.0     0.83864423          0.66451425          0.34627222          0.0     
O27  O    1.0     0.08918585          0.35302559          0.3998805           0.0     
O28  O    1.0     0.58906042          0.35498147          0.4016453           0.0     
O29  O    1.0     0.08929332          -0.1427609          0.43548886          0.0     
O30  O    1.0     0.58934425          -0.14287361         0.43551022          0.0     
O31  O    1.0     0.34367181          0.16559854          0.4943288           0.0     
O32  O    1.0     0.8351578           0.16576612          0.49446688          0.0     
O33  O    1.0     0.34368785          0.54621721          0.49264725          0.0     
O34  O    1.0     0.83513041          0.54606642          0.49285797          0.0     
O35  O    1.0     0.08947472          -0.14668307         0.54564242          0.0     
O36  O    1.0     0.58938357          -0.14668909         0.54540112          0.0     
Ir37 Ir   1.0     0.33911189          0.35545641          0.05551082          0.0     
Ir38 Ir   1.0     0.83911189          0.35545641          0.05551082          0.0     
Ir39 Ir   1.0     0.08911189          -0.14454359         0.05551082          0.0     
Ir40 Ir   1.0     0.58911189          -0.14454359         0.05551082          0.0     
Ir41 Ir   1.0     0.08911189          0.35545641          0.20047039          0.0     
Ir42 Ir   1.0     0.58911189          0.35545641          0.20047039          0.0     
Ir43 Ir   1.0     0.33911189          -0.14454359         0.20047039          0.0     
Ir44 Ir   1.0     0.83911189          -0.14454359         0.20047039          0.0     
Ir45 Ir   1.0     0.34174164          0.3559747           0.3453496           0.0     
Ir46 Ir   1.0     0.83652362          0.355952            0.34534707          0.0     
Ir47 Ir   1.0     0.08916606          -0.14390614         0.34624802          0.0     
Ir48 Ir   1.0     0.58917323          -0.14396002         0.34625215          0.0     
Ir49 Ir   1.0     0.08944433          0.35593838          0.48788135          0.0     
Ir50 Ir   1.0     0.33844257          -0.144306           0.49174652          0.0     
Ir51 Ir   1.0     0.84030143          -0.14430177         0.49177556          0.0     
Mo52 Mo   1.0     0.58931563          0.35599373          0.49971151          0.0     
