data_HCOIrTi
_audit_creation_method        'pos2cif.py'        
_cell_length_a                6.36215693          
_cell_length_b                6.384482994809508   
_cell_length_c                22.021598412435427  
_cell_angle_alpha             90.0                
_cell_angle_beta              90.0                
_cell_angle_gamma             90.0                
_symmetry_space_group_H-M     'P1'                
_symmetry_Int_Tables_number   '1'                 
_symmetry_cell_setting        'triclinic'         
loop_                         
_symmetry_equiv_pos_as_xyz    
x,y,z                         

loop_                         
_atom_site_label              
_atom_site_type_symbol        
_atom_site_occupancy          
_atom_site_fract_x            
_atom_site_fract_y            
_atom_site_fract_z            
_atom_site_U_iso_or_equiv     
H1   H    1.0     0.59676961          0.19686637          0.60250379          0.0     
H2   H    1.0     0.43853335          0.43136799          0.61051255          0.0     
H3   H    1.0     0.72130998          0.45078033          0.61128906          0.0     
C4   C    1.0     0.58583528          0.36633793          0.59300691          0.0     
O5   O    1.0     0.08911189          0.35545641          0.0                 0.0     
O6   O    1.0     0.58911189          0.35545641          0.0                 0.0     
O7   O    1.0     0.33911189          0.04692641          0.05551082          0.0     
O8   O    1.0     0.83911189          0.04692641          0.05551082          0.0     
O9   O    1.0     0.33911189          0.66398641          0.05551082          0.0     
O10  O    1.0     0.83911189          0.66398641          0.05551082          0.0     
O11  O    1.0     0.08911189          0.35545641          0.11102164          0.0     
O12  O    1.0     0.58911189          0.35545641          0.11102164          0.0     
O13  O    1.0     0.08911189          -0.14454359         0.14495957          0.0     
O14  O    1.0     0.58911189          -0.14454359         0.14495957          0.0     
O15  O    1.0     0.33911189          0.16398641          0.20047039          0.0     
O16  O    1.0     0.83911189          0.16398641          0.20047039          0.0     
O17  O    1.0     0.33911189          0.54692641          0.20047039          0.0     
O18  O    1.0     0.83911189          0.54692641          0.20047039          0.0     
O19  O    1.0     0.08911189          -0.14454359         0.25598121          0.0     
O20  O    1.0     0.58911189          -0.14454359         0.25598121          0.0     
O21  O    1.0     0.08911761          0.35650464          0.28989108          0.0     
O22  O    1.0     0.58914139          0.35680646          0.28962897          0.0     
O23  O    1.0     0.33977338          0.04789606          0.34608343          0.0     
O24  O    1.0     0.83863715          0.0478675           0.34611326          0.0     
O25  O    1.0     0.33964885          0.66481207          0.34617622          0.0     
O26  O    1.0     0.83868752          0.66479898          0.34619132          0.0     
O27  O    1.0     0.08922847          0.35438326          0.39957526          0.0     
O28  O    1.0     0.58904159          0.35511396          0.40172751          0.0     
O29  O    1.0     0.08931201          -0.14410667         0.43603319          0.0     
O30  O    1.0     0.58939233          -0.14447895         0.4358249           0.0     
O31  O    1.0     0.34206467          0.16276875          0.49325232          0.0     
O32  O    1.0     0.83696701          0.16284459          0.49335651          0.0     
O33  O    1.0     0.34162999          0.54510444          0.4916654           0.0     
O34  O    1.0     0.83706521          0.54483714          0.49186972          0.0     
O35  O    1.0     0.08939082          -0.14911695         0.5461296           0.0     
O36  O    1.0     0.58929205          -0.15024401         0.54575376          0.0     
Ir37 Ir   1.0     0.33911189          0.35545641          0.05551082          0.0     
Ir38 Ir   1.0     0.83911189          0.35545641          0.05551082          0.0     
Ir39 Ir   1.0     0.08911189          -0.14454359         0.05551082          0.0     
Ir40 Ir   1.0     0.58911189          -0.14454359         0.05551082          0.0     
Ir41 Ir   1.0     0.08911189          0.35545641          0.20047039          0.0     
Ir42 Ir   1.0     0.58911189          0.35545641          0.20047039          0.0     
Ir43 Ir   1.0     0.33911189          -0.14454359         0.20047039          0.0     
Ir44 Ir   1.0     0.83911189          -0.14454359         0.20047039          0.0     
Ir45 Ir   1.0     0.34200284          0.35642246          0.3452699           0.0     
Ir46 Ir   1.0     0.83627105          0.35640757          0.34528198          0.0     
Ir47 Ir   1.0     0.08918014          -0.14364711         0.34654117          0.0     
Ir48 Ir   1.0     0.58919428          -0.14369241         0.34646762          0.0     
Ir49 Ir   1.0     0.08946589          0.3549735           0.48651841          0.0     
Ir50 Ir   1.0     0.33871355          -0.14773379         0.4924047           0.0     
Ir51 Ir   1.0     0.83999706          -0.14772641         0.49242147          0.0     
Ti52 Ti   1.0     0.5895154           0.34871782          0.49567283          0.0     
