data_HCOIrV
_audit_creation_method        'pos2cif.py'        
_cell_length_a                6.36215693          
_cell_length_b                6.384482994809508   
_cell_length_c                22.021598412435427  
_cell_angle_alpha             90.0                
_cell_angle_beta              90.0                
_cell_angle_gamma             90.0                
_symmetry_space_group_H-M     'P1'                
_symmetry_Int_Tables_number   '1'                 
_symmetry_cell_setting        'triclinic'         
loop_                         
_symmetry_equiv_pos_as_xyz    
x,y,z                         

loop_                         
_atom_site_label              
_atom_site_type_symbol        
_atom_site_occupancy          
_atom_site_fract_x            
_atom_site_fract_y            
_atom_site_fract_z            
_atom_site_U_iso_or_equiv     
H1   H    1.0     0.59697607          0.19143293          0.60089892          0.0     
H2   H    1.0     0.43860331          0.42637806          0.60523363          0.0     
H3   H    1.0     0.72100376          0.44643355          0.60592163          0.0     
C4   C    1.0     0.58593402          0.35810237          0.58871941          0.0     
O5   O    1.0     0.08911189          0.35545641          0.0                 0.0     
O6   O    1.0     0.58911189          0.35545641          0.0                 0.0     
O7   O    1.0     0.33911189          0.04692641          0.05551082          0.0     
O8   O    1.0     0.83911189          0.04692641          0.05551082          0.0     
O9   O    1.0     0.33911189          0.66398641          0.05551082          0.0     
O10  O    1.0     0.83911189          0.66398641          0.05551082          0.0     
O11  O    1.0     0.08911189          0.35545641          0.11102164          0.0     
O12  O    1.0     0.58911189          0.35545641          0.11102164          0.0     
O13  O    1.0     0.08911189          -0.14454359         0.14495957          0.0     
O14  O    1.0     0.58911189          -0.14454359         0.14495957          0.0     
O15  O    1.0     0.33911189          0.16398641          0.20047039          0.0     
O16  O    1.0     0.83911189          0.16398641          0.20047039          0.0     
O17  O    1.0     0.33911189          0.54692641          0.20047039          0.0     
O18  O    1.0     0.83911189          0.54692641          0.20047039          0.0     
O19  O    1.0     0.08911189          -0.14454359         0.25598121          0.0     
O20  O    1.0     0.58911189          -0.14454359         0.25598121          0.0     
O21  O    1.0     0.08916381          0.35644555          0.28988216          0.0     
O22  O    1.0     0.58915433          0.35641732          0.28955311          0.0     
O23  O    1.0     0.3398167           0.04761049          0.34577292          0.0     
O24  O    1.0     0.83864404          0.04759325          0.34578062          0.0     
O25  O    1.0     0.33966923          0.66450408          0.34607706          0.0     
O26  O    1.0     0.83872378          0.66447123          0.34608855          0.0     
O27  O    1.0     0.08921866          0.35398069          0.39951218          0.0     
O28  O    1.0     0.58905927          0.35500312          0.40149152          0.0     
O29  O    1.0     0.08930227          -0.14286656         0.43576542          0.0     
O30  O    1.0     0.5893604           -0.14317735         0.43541214          0.0     
O31  O    1.0     0.34744767          0.1677461           0.49271925          0.0     
O32  O    1.0     0.83116916          0.16789036          0.49281686          0.0     
O33  O    1.0     0.34709415          0.5440994           0.49108958          0.0     
O34  O    1.0     0.83147254          0.54388211          0.49130441          0.0     
O35  O    1.0     0.08943918          -0.14677236         0.54531219          0.0     
O36  O    1.0     0.58935512          -0.14705856         0.5453327           0.0     
Ir37 Ir   1.0     0.33911189          0.35545641          0.05551082          0.0     
Ir38 Ir   1.0     0.83911189          0.35545641          0.05551082          0.0     
Ir39 Ir   1.0     0.08911189          -0.14454359         0.05551082          0.0     
Ir40 Ir   1.0     0.58911189          -0.14454359         0.05551082          0.0     
Ir41 Ir   1.0     0.08911189          0.35545641          0.20047039          0.0     
Ir42 Ir   1.0     0.58911189          0.35545641          0.20047039          0.0     
Ir43 Ir   1.0     0.33911189          -0.14454359         0.20047039          0.0     
Ir44 Ir   1.0     0.83911189          -0.14454359         0.20047039          0.0     
Ir45 Ir   1.0     0.34205453          0.35609211          0.34524324          0.0     
Ir46 Ir   1.0     0.83627897          0.35605623          0.34524783          0.0     
Ir47 Ir   1.0     0.08920755          -0.14385865         0.34635946          0.0     
Ir48 Ir   1.0     0.58921393          -0.14394038         0.34621135          0.0     
Ir49 Ir   1.0     0.08931303          0.35603737          0.48699757          0.0     
Ir50 Ir   1.0     0.33968631          -0.1447581          0.49185001          0.0     
Ir51 Ir   1.0     0.83904724          -0.14474517         0.49187415          0.0     
V52  V    1.0     0.58923903          0.35473466          0.49405345          0.0     
