data_HCORhIr
_audit_creation_method        'pos2cif.py'        
_cell_length_a                6.36215693          
_cell_length_b                6.38448299          
_cell_length_c                22.02159841         
_cell_angle_alpha             90.0                
_cell_angle_beta              90.0                
_cell_angle_gamma             90.0                
_symmetry_space_group_H-M     'P1'                
_symmetry_Int_Tables_number   '1'                 
_symmetry_cell_setting        'triclinic'         
loop_                         
_symmetry_equiv_pos_as_xyz    
x,y,z                         

loop_                         
_atom_site_label              
_atom_site_type_symbol        
_atom_site_occupancy          
_atom_site_fract_x            
_atom_site_fract_y            
_atom_site_fract_z            
_atom_site_U_iso_or_equiv     
H1   H    1.0     0.5985202           0.19034098          0.60306582          0.0     
H2   H    1.0     0.4397427           0.4268108           0.6039644           0.0     
H3   H    1.0     0.72179812          0.44758135          0.60457776          0.0     
C4   C    1.0     0.58734343          0.35459755          0.58901455          0.0     
O5   O    1.0     0.08911             0.35546             0.0                 0.0     
O6   O    1.0     0.58911             0.35546             0.0                 0.0     
O7   O    1.0     0.33911             0.04693             0.05551             0.0     
O8   O    1.0     0.83911             0.04693             0.05551             0.0     
O9   O    1.0     0.33911             0.66399             0.05551             0.0     
O10  O    1.0     0.83911             0.66399             0.05551             0.0     
O11  O    1.0     0.08911             0.35546             0.11102             0.0     
O12  O    1.0     0.58911             0.35546             0.11102             0.0     
O13  O    1.0     0.58911             -0.14454            0.14496             0.0     
O14  O    1.0     0.08911             -0.14454            0.14496             0.0     
O15  O    1.0     0.33911             0.16399             0.20047             0.0     
O16  O    1.0     0.83911             0.16399             0.20047             0.0     
O17  O    1.0     0.33911             0.54693             0.20047             0.0     
O18  O    1.0     0.83911             0.54693             0.20047             0.0     
O19  O    1.0     0.08911             -0.14454            0.25598             0.0     
O20  O    1.0     0.58911             -0.14454            0.25598             0.0     
O21  O    1.0     0.08930409          0.35602093          0.29003207          0.0     
O22  O    1.0     0.58929839          0.35602936          0.28918859          0.0     
O23  O    1.0     0.33964437          0.04727551          0.34587303          0.0     
O24  O    1.0     0.83892119          0.0472532           0.3458647           0.0     
O25  O    1.0     0.33956674          0.66423686          0.346101            0.0     
O26  O    1.0     0.8389355           0.66421792          0.34609279          0.0     
O27  O    1.0     0.08933781          0.35444667          0.39974682          0.0     
O28  O    1.0     0.58939506          0.35534807          0.39902141          0.0     
O29  O    1.0     0.08902884          -0.14347057         0.43648071          0.0     
O30  O    1.0     0.58906972          -0.1434998          0.43645475          0.0     
O31  O    1.0     0.33730155          0.16415959          0.49464569          0.0     
O32  O    1.0     0.84068283          0.16419268          0.49471753          0.0     
O33  O    1.0     0.33747657          0.54772926          0.49377818          0.0     
O34  O    1.0     0.84047947          0.54769357          0.49388584          0.0     
O35  O    1.0     0.08894561          -0.1456655          0.54726562          0.0     
O36  O    1.0     0.58892185          -0.14571621         0.54691631          0.0     
Rh37 Rh   1.0     0.58883632          0.35622807          0.49592579          0.0     
Ir38 Ir   1.0     0.33911             0.35546             0.05551             0.0     
Ir39 Ir   1.0     0.83911             0.35546             0.05551             0.0     
Ir40 Ir   1.0     0.08911             -0.14454            0.05551             0.0     
Ir41 Ir   1.0     0.58911             -0.14454            0.05551             0.0     
Ir42 Ir   1.0     0.08911             0.35546             0.20047             0.0     
Ir43 Ir   1.0     0.58911             0.35546             0.20047             0.0     
Ir44 Ir   1.0     0.33911             -0.14454            0.20047             0.0     
Ir45 Ir   1.0     0.83911             -0.14454            0.20047             0.0     
Ir46 Ir   1.0     0.8363915           0.35571444          0.34489836          0.0     
Ir47 Ir   1.0     0.34228368          0.35573398          0.34490929          0.0     
Ir48 Ir   1.0     0.08922496          -0.14418701         0.34655212          0.0     
Ir49 Ir   1.0     0.58922551          -0.14421825         0.34663204          0.0     
Ir50 Ir   1.0     0.0889474           0.35587798          0.48792728          0.0     
Ir51 Ir   1.0     0.33892552          -0.14415763         0.49337179          0.0     
Ir52 Ir   1.0     0.8390009           -0.14416658         0.49338033          0.0     
