data_HCOVMo
_audit_creation_method        'pos2cif.py'        
_cell_length_a                5.64711014          
_cell_length_b                6.450147843790429   
_cell_length_c                22.267278180501698  
_cell_angle_alpha             90.0                
_cell_angle_beta              90.0                
_cell_angle_gamma             90.0                
_symmetry_space_group_H-M     'P1'                
_symmetry_Int_Tables_number   '1'                 
_symmetry_cell_setting        'triclinic'         
loop_                         
_symmetry_equiv_pos_as_xyz    
x,y,z                         

loop_                         
_atom_site_label              
_atom_site_type_symbol        
_atom_site_occupancy          
_atom_site_fract_x            
_atom_site_fract_y            
_atom_site_fract_z            
_atom_site_U_iso_or_equiv     
H1   H    1.0     0.41589407          0.39263535          0.61167525          0.0     
H2   H    1.0     0.57404381          0.6338486           0.61408041          0.0     
H3   H    1.0     0.25762366          0.63389593          0.61408582          0.0     
C4   C    1.0     0.41598495          0.55506359          0.59668745          0.0     
O5   O    1.0     0.41591489          0.55480134          0.0                 0.0     
O6   O    1.0     0.91591489          0.55480134          0.0                 0.0     
O7   O    1.0     0.16591489          0.25573134          0.05820326          0.0     
O8   O    1.0     0.66591489          0.25573134          0.05820326          0.0     
O9   O    1.0     0.16591489          0.85387134          0.05820326          0.0     
O10  O    1.0     0.66591489          0.85387134          0.05820326          0.0     
O11  O    1.0     0.41591489          0.55480134          0.11640652          0.0     
O12  O    1.0     0.91591489          0.55480134          0.11640652          0.0     
O13  O    1.0     0.41591489          0.05480134          0.14483467          0.0     
O14  O    1.0     0.91591489          0.05480134          0.14483467          0.0     
O15  O    1.0     0.16591489          0.35387134          0.20303793          0.0     
O16  O    1.0     0.66591489          0.35387134          0.20303793          0.0     
O17  O    1.0     0.16591489          0.75573134          0.20303793          0.0     
O18  O    1.0     0.66591489          0.75573134          0.20303793          0.0     
O19  O    1.0     0.41591489          0.05480134          0.26124119          0.0     
O20  O    1.0     0.91591489          0.05480134          0.26124119          0.0     
O21  O    1.0     0.41601065          0.55523014          0.28750598          0.0     
O22  O    1.0     0.91596641          0.55502272          0.29020396          0.0     
O23  O    1.0     0.16687917          0.25631806          0.34833602          0.0     
O24  O    1.0     0.66484351          0.25628487          0.34833198          0.0     
O25  O    1.0     0.16670289          0.85333503          0.34880412          0.0     
O26  O    1.0     0.66496987          0.85339025          0.34881105          0.0     
O27  O    1.0     0.41599835          0.55374874          0.4064242           0.0     
O28  O    1.0     -0.08396536         0.55305049          0.40520656          0.0     
O29  O    1.0     0.41593853          0.0569842           0.43778752          0.0     
O30  O    1.0     -0.08409193         0.05701442          0.43719637          0.0     
O31  O    1.0     0.15295914          0.35635456          0.50152908          0.0     
O32  O    1.0     0.67925498          0.35643807          0.50156344          0.0     
O33  O    1.0     0.15325902          0.75485747          0.49968184          0.0     
O34  O    1.0     0.67896175          0.75479019          0.49971115          0.0     
O35  O    1.0     0.41621072          0.05322798          0.54982402          0.0     
O36  O    1.0     -0.08378108         0.05336214          0.5514307           0.0     
V37  V    1.0     0.41591489          0.05480134          0.05820326          0.0     
V38  V    1.0     0.91591489          0.05480134          0.05820326          0.0     
V39  V    1.0     0.16591489          0.55480134          0.05820326          0.0     
V40  V    1.0     0.66591489          0.55480134          0.05820326          0.0     
V41  V    1.0     0.16591489          0.05480134          0.20303793          0.0     
V42  V    1.0     0.66591489          0.05480134          0.20303793          0.0     
V43  V    1.0     0.41591489          0.55480134          0.20303793          0.0     
V44  V    1.0     0.91591489          0.55480134          0.20303793          0.0     
V45  V    1.0     0.41613064          0.0551568           0.35222793          0.0     
V46  V    1.0     0.91618891          0.05510012          0.35146416          0.0     
V47  V    1.0     0.17678897          0.55498782          0.34535627          0.0     
V48  V    1.0     0.65553172          0.5549842           0.34531713          0.0     
V49  V    1.0     0.16345431          0.05524934          0.50101089          0.0     
V50  V    1.0     0.66932645          0.0552499           0.50098572          0.0     
V51  V    1.0     -0.08379723         0.55560601          0.4828387           0.0     
Mo52 Mo   1.0     0.41611914          0.55456847          0.49966036          0.0     
