data_HCOVGe
_audit_creation_method        'pos2cif.py'        
_cell_length_a                5.64711014          
_cell_length_b                6.450147843790429   
_cell_length_c                22.267278180501698  
_cell_angle_alpha             90.0                
_cell_angle_beta              90.0                
_cell_angle_gamma             90.0                
_symmetry_space_group_H-M     'P1'                
_symmetry_Int_Tables_number   '1'                 
_symmetry_cell_setting        'triclinic'         
loop_                         
_symmetry_equiv_pos_as_xyz    
x,y,z                         

loop_                         
_atom_site_label              
_atom_site_type_symbol        
_atom_site_occupancy          
_atom_site_fract_x            
_atom_site_fract_y            
_atom_site_fract_z            
_atom_site_U_iso_or_equiv     
H1   H    1.0     0.41737986          0.39100293          0.62871767          0.0     
H2   H    1.0     0.57677365          0.63323503          0.63033541          0.0     
H3   H    1.0     0.25925309          0.63395461          0.6296477           0.0     
C4   C    1.0     0.41830191          0.55307646          0.6140235           0.0     
O5   O    1.0     0.41591489          0.55480134          0.0                 0.0     
O6   O    1.0     0.91591489          0.55480134          0.0                 0.0     
O7   O    1.0     0.16591489          0.25573134          0.05820326          0.0     
O8   O    1.0     0.66591489          0.25573134          0.05820326          0.0     
O9   O    1.0     0.16591489          0.85387134          0.05820326          0.0     
O10  O    1.0     0.66591489          0.85387134          0.05820326          0.0     
O11  O    1.0     0.41591489          0.55480134          0.11640652          0.0     
O12  O    1.0     0.91591489          0.55480134          0.11640652          0.0     
O13  O    1.0     0.41591489          0.05480134          0.14483467          0.0     
O14  O    1.0     0.91591489          0.05480134          0.14483467          0.0     
O15  O    1.0     0.16591489          0.35387134          0.20303793          0.0     
O16  O    1.0     0.66591489          0.35387134          0.20303793          0.0     
O17  O    1.0     0.16591489          0.75573134          0.20303793          0.0     
O18  O    1.0     0.66591489          0.75573134          0.20303793          0.0     
O19  O    1.0     0.41591489          0.05480134          0.26124119          0.0     
O20  O    1.0     0.91591489          0.05480134          0.26124119          0.0     
O21  O    1.0     0.41425947          0.55523098          0.28851019          0.0     
O22  O    1.0     0.91175323          0.55511979          0.28946397          0.0     
O23  O    1.0     0.1569463           0.25793962          0.34824325          0.0     
O24  O    1.0     0.66173859          0.25480094          0.34908306          0.0     
O25  O    1.0     0.15685637          0.85246892          0.34840711          0.0     
O26  O    1.0     0.66167592          0.85556845          0.34921121          0.0     
O27  O    1.0     0.41621631          0.5549414           0.40395731          0.0     
O28  O    1.0     -0.08246876         0.55490113          0.40568216          0.0     
O29  O    1.0     0.3952912           0.05582413          0.43514976          0.0     
O30  O    1.0     -0.09083855         0.05589614          0.44188207          0.0     
O31  O    1.0     0.16810776          0.36566512          0.50356874          0.0     
O32  O    1.0     0.6749617           0.36688017          0.50395225          0.0     
O33  O    1.0     0.16820857          0.74539182          0.50317902          0.0     
O34  O    1.0     0.67483501          0.74423979          0.50353987          0.0     
O35  O    1.0     0.42752389          0.05485449          0.55040932          0.0     
O36  O    1.0     -0.07337266         0.05489483          0.55686323          0.0     
V37  V    1.0     0.41591489          0.05480134          0.05820326          0.0     
V38  V    1.0     0.91591489          0.05480134          0.05820326          0.0     
V39  V    1.0     0.16591489          0.55480134          0.05820326          0.0     
V40  V    1.0     0.66591489          0.55480134          0.05820326          0.0     
V41  V    1.0     0.16591489          0.05480134          0.20303793          0.0     
V42  V    1.0     0.66591489          0.05480134          0.20303793          0.0     
V43  V    1.0     0.41591489          0.55480134          0.20303793          0.0     
V44  V    1.0     0.91591489          0.55480134          0.20303793          0.0     
V45  V    1.0     0.41818963          0.0552216           0.34811178          0.0     
V46  V    1.0     0.91893656          0.05525814          0.34839432          0.0     
V47  V    1.0     0.19140785          0.55524947          0.34999918          0.0     
V48  V    1.0     0.66709308          0.55526508          0.34402493          0.0     
V49  V    1.0     0.19440643          0.05557131          0.49448634          0.0     
V50  V    1.0     0.70061164          0.05550141          0.50825598          0.0     
V51  V    1.0     -0.07907455         0.55539545          0.48337013          0.0     
Ge52 Ge   1.0     0.42066561          0.55575639          0.52603235          0.0     
