data_HCOVOs
_audit_creation_method        'pos2cif.py'        
_cell_length_a                5.64711014          
_cell_length_b                6.450147843790429   
_cell_length_c                22.267278180501698  
_cell_angle_alpha             90.0                
_cell_angle_beta              90.0                
_cell_angle_gamma             90.0                
_symmetry_space_group_H-M     'P1'                
_symmetry_Int_Tables_number   '1'                 
_symmetry_cell_setting        'triclinic'         
loop_                         
_symmetry_equiv_pos_as_xyz    
x,y,z                         

loop_                         
_atom_site_label              
_atom_site_type_symbol        
_atom_site_occupancy          
_atom_site_fract_x            
_atom_site_fract_y            
_atom_site_fract_z            
_atom_site_U_iso_or_equiv     
H1   H    1.0     0.430385            0.39346564          0.60975514          0.0     
H2   H    1.0     0.58726546          0.63615297          0.61162688          0.0     
H3   H    1.0     0.27170303          0.6338982           0.61011083          0.0     
C4   C    1.0     0.43130762          0.55457364          0.59374029          0.0     
O5   O    1.0     0.41591489          0.55480134          0.0                 0.0     
O6   O    1.0     0.91591489          0.55480134          0.0                 0.0     
O7   O    1.0     0.16591489          0.25573134          0.05820326          0.0     
O8   O    1.0     0.66591489          0.25573134          0.05820326          0.0     
O9   O    1.0     0.16591489          0.85387134          0.05820326          0.0     
O10  O    1.0     0.66591489          0.85387134          0.05820326          0.0     
O11  O    1.0     0.41591489          0.55480134          0.11640652          0.0     
O12  O    1.0     0.91591489          0.55480134          0.11640652          0.0     
O13  O    1.0     0.41591489          0.05480134          0.14483467          0.0     
O14  O    1.0     0.91591489          0.05480134          0.14483467          0.0     
O15  O    1.0     0.16591489          0.35387134          0.20303793          0.0     
O16  O    1.0     0.66591489          0.35387134          0.20303793          0.0     
O17  O    1.0     0.16591489          0.75573134          0.20303793          0.0     
O18  O    1.0     0.66591489          0.75573134          0.20303793          0.0     
O19  O    1.0     0.41591489          0.05480134          0.26124119          0.0     
O20  O    1.0     0.91591489          0.05480134          0.26124119          0.0     
O21  O    1.0     0.41563584          0.55516535          0.28842421          0.0     
O22  O    1.0     0.91549311          0.55508897          0.2900783           0.0     
O23  O    1.0     0.16466461          0.25733771          0.34838857          0.0     
O24  O    1.0     0.66290775          0.25567679          0.34887803          0.0     
O25  O    1.0     0.16444422          0.85249713          0.34867448          0.0     
O26  O    1.0     0.66289922          0.85419489          0.34915012          0.0     
O27  O    1.0     0.41482444          0.5544509           0.4061438           0.0     
O28  O    1.0     -0.08836152         0.55391568          0.4064365           0.0     
O29  O    1.0     0.42065338          0.05624626          0.43946516          0.0     
O30  O    1.0     -0.06680595         0.0563448           0.4354094           0.0     
O31  O    1.0     0.15712595          0.36439306          0.5001673           0.0     
O32  O    1.0     0.68456678          0.34068261          0.49935188          0.0     
O33  O    1.0     0.15694268          0.74648806          0.49920153          0.0     
O34  O    1.0     0.68454999          0.77004213          0.49814392          0.0     
O35  O    1.0     0.39806354          0.05349428          0.55398105          0.0     
O36  O    1.0     -0.09233848         0.05423832          0.55105745          0.0     
V37  V    1.0     0.41591489          0.05480134          0.05820326          0.0     
V38  V    1.0     0.91591489          0.05480134          0.05820326          0.0     
V39  V    1.0     0.16591489          0.55480134          0.05820326          0.0     
V40  V    1.0     0.66591489          0.55480134          0.05820326          0.0     
V41  V    1.0     0.16591489          0.05480134          0.20303793          0.0     
V42  V    1.0     0.66591489          0.05480134          0.20303793          0.0     
V43  V    1.0     0.41591489          0.55480134          0.20303793          0.0     
V44  V    1.0     0.91591489          0.55480134          0.20303793          0.0     
V45  V    1.0     0.42162235          0.05502384          0.35094933          0.0     
V46  V    1.0     0.92302336          0.05504966          0.34752408          0.0     
V47  V    1.0     0.1867369           0.5548962           0.3486602           0.0     
V48  V    1.0     0.66810092          0.55496093          0.34399962          0.0     
V49  V    1.0     0.12963793          0.055436            0.49685573          0.0     
V50  V    1.0     0.62753853          0.05523672          0.50520085          0.0     
V51  V    1.0     -0.10338225         0.55512197          0.48462253          0.0     
Os52 Os   1.0     0.43278062          0.5554827           0.50009312          0.0     
