data_HCOVIr
_audit_creation_method        'pos2cif.py'        
_cell_length_a                5.64711014          
_cell_length_b                6.450147843790429   
_cell_length_c                22.267278180501698  
_cell_angle_alpha             90.0                
_cell_angle_beta              90.0                
_cell_angle_gamma             90.0                
_symmetry_space_group_H-M     'P1'                
_symmetry_Int_Tables_number   '1'                 
_symmetry_cell_setting        'triclinic'         
loop_                         
_symmetry_equiv_pos_as_xyz    
x,y,z                         

loop_                         
_atom_site_label              
_atom_site_type_symbol        
_atom_site_occupancy          
_atom_site_fract_x            
_atom_site_fract_y            
_atom_site_fract_z            
_atom_site_U_iso_or_equiv     
H1   H    1.0     0.39476313          0.3944462           0.61028245          0.0     
H2   H    1.0     0.53155139          0.64648895          0.61247143          0.0     
H3   H    1.0     0.21639851          0.62524558          0.6085232           0.0     
C4   C    1.0     0.38454897          0.55495883          0.59415725          0.0     
O5   O    1.0     0.41591489          0.55480134          0.0                 0.0     
O6   O    1.0     0.91591489          0.55480134          0.0                 0.0     
O7   O    1.0     0.16591489          0.25573134          0.05820326          0.0     
O8   O    1.0     0.66591489          0.25573134          0.05820326          0.0     
O9   O    1.0     0.16591489          0.85387134          0.05820326          0.0     
O10  O    1.0     0.66591489          0.85387134          0.05820326          0.0     
O11  O    1.0     0.41591489          0.55480134          0.11640652          0.0     
O12  O    1.0     0.91591489          0.55480134          0.11640652          0.0     
O13  O    1.0     0.41591489          0.05480134          0.14483467          0.0     
O14  O    1.0     0.91591489          0.05480134          0.14483467          0.0     
O15  O    1.0     0.16591489          0.35387134          0.20303793          0.0     
O16  O    1.0     0.66591489          0.35387134          0.20303793          0.0     
O17  O    1.0     0.16591489          0.75573134          0.20303793          0.0     
O18  O    1.0     0.66591489          0.75573134          0.20303793          0.0     
O19  O    1.0     0.41591489          0.05480134          0.26124119          0.0     
O20  O    1.0     0.91591489          0.05480134          0.26124119          0.0     
O21  O    1.0     0.41587299          0.55490262          0.28787762          0.0     
O22  O    1.0     0.91484887          0.55481517          0.29058844          0.0     
O23  O    1.0     0.16072938          0.25649507          0.3487822           0.0     
O24  O    1.0     0.65834954          0.25494091          0.34885954          0.0     
O25  O    1.0     0.16051809          0.85279485          0.348969            0.0     
O26  O    1.0     0.65827604          0.85446813          0.3490563           0.0     
O27  O    1.0     0.41439297          0.55428046          0.40517174          0.0     
O28  O    1.0     -0.08053719         0.55375208          0.40601156          0.0     
O29  O    1.0     0.40797457          0.05580929          0.44091875          0.0     
O30  O    1.0     -0.10584035         0.05555365          0.43531067          0.0     
O31  O    1.0     0.14447198          0.34377254          0.50055422          0.0     
O32  O    1.0     0.68162161          0.36394619          0.50125477          0.0     
O33  O    1.0     0.14468708          0.76604219          0.4994002           0.0     
O34  O    1.0     0.68183288          0.74554777          0.50063364          0.0     
O35  O    1.0     0.42707807          0.05317296          0.55532493          0.0     
O36  O    1.0     -0.07907464         0.05386703          0.5511945           0.0     
V37  V    1.0     0.41591489          0.05480134          0.05820326          0.0     
V38  V    1.0     0.91591489          0.05480134          0.05820326          0.0     
V39  V    1.0     0.16591489          0.55480134          0.05820326          0.0     
V40  V    1.0     0.66591489          0.55480134          0.05820326          0.0     
V41  V    1.0     0.16591489          0.05480134          0.20303793          0.0     
V42  V    1.0     0.66591489          0.05480134          0.20303793          0.0     
V43  V    1.0     0.41591489          0.55480134          0.20303793          0.0     
V44  V    1.0     0.91591489          0.55480134          0.20303793          0.0     
V45  V    1.0     0.41673369          0.05478913          0.35212254          0.0     
V46  V    1.0     0.91983438          0.0547241           0.34741638          0.0     
V47  V    1.0     0.18556619          0.55470321          0.34742873          0.0     
V48  V    1.0     0.66177156          0.5546682           0.34559433          0.0     
V49  V    1.0     0.19390782          0.05476288          0.50825299          0.0     
V50  V    1.0     0.69308094          0.05528942          0.49501389          0.0     
V51  V    1.0     -0.0666394          0.55470293          0.48443927          0.0     
Ir52 Ir   1.0     0.40420459          0.5551009           0.50145494          0.0     
