data_HCOVRu
_audit_creation_method        'pos2cif.py'        
_cell_length_a                5.64711014          
_cell_length_b                6.450147843790429   
_cell_length_c                22.267278180501698  
_cell_angle_alpha             90.0                
_cell_angle_beta              90.0                
_cell_angle_gamma             90.0                
_symmetry_space_group_H-M     'P1'                
_symmetry_Int_Tables_number   '1'                 
_symmetry_cell_setting        'triclinic'         
loop_                         
_symmetry_equiv_pos_as_xyz    
x,y,z                         

loop_                         
_atom_site_label              
_atom_site_type_symbol        
_atom_site_occupancy          
_atom_site_fract_x            
_atom_site_fract_y            
_atom_site_fract_z            
_atom_site_U_iso_or_equiv     
H1   H    1.0     0.40052799          0.39217883          0.60823561          0.0     
H2   H    1.0     0.55717867          0.63604471          0.60952841          0.0     
H3   H    1.0     0.23961571          0.63475672          0.60930676          0.0     
C4   C    1.0     0.39898632          0.55438695          0.59330709          0.0     
O5   O    1.0     0.41591489          0.55480134          0.0                 0.0     
O6   O    1.0     0.91591489          0.55480134          0.0                 0.0     
O7   O    1.0     0.16591489          0.25573134          0.05820326          0.0     
O8   O    1.0     0.66591489          0.25573134          0.05820326          0.0     
O9   O    1.0     0.16591489          0.85387134          0.05820326          0.0     
O10  O    1.0     0.66591489          0.85387134          0.05820326          0.0     
O11  O    1.0     0.41591489          0.55480134          0.11640652          0.0     
O12  O    1.0     0.91591489          0.55480134          0.11640652          0.0     
O13  O    1.0     0.41591489          0.05480134          0.14483467          0.0     
O14  O    1.0     0.91591489          0.05480134          0.14483467          0.0     
O15  O    1.0     0.16591489          0.35387134          0.20303793          0.0     
O16  O    1.0     0.66591489          0.35387134          0.20303793          0.0     
O17  O    1.0     0.16591489          0.75573134          0.20303793          0.0     
O18  O    1.0     0.66591489          0.75573134          0.20303793          0.0     
O19  O    1.0     0.41591489          0.05480134          0.26124119          0.0     
O20  O    1.0     0.91591489          0.05480134          0.26124119          0.0     
O21  O    1.0     0.41567361          0.55521765          0.28872326          0.0     
O22  O    1.0     0.91276822          0.55514362          0.2896417           0.0     
O23  O    1.0     0.15968775          0.25632841          0.34839575          0.0     
O24  O    1.0     0.65869506          0.25624971          0.34860412          0.0     
O25  O    1.0     0.15951675          0.85372303          0.34865467          0.0     
O26  O    1.0     0.65867348          0.85382675          0.3488705           0.0     
O27  O    1.0     0.40973774          0.55461293          0.4046883           0.0     
O28  O    1.0     -0.08116967         0.55418094          0.40664199          0.0     
O29  O    1.0     0.41082042          0.05612824          0.43826747          0.0     
O30  O    1.0     -0.09969316         0.05622431          0.435254            0.0     
O31  O    1.0     0.15387877          0.34336373          0.49926046          0.0     
O32  O    1.0     0.68490645          0.36335445          0.50104096          0.0     
O33  O    1.0     0.15390641          0.76743615          0.49824915          0.0     
O34  O    1.0     0.68519115          0.74734642          0.50026623          0.0     
O35  O    1.0     0.44082716          0.05384193          0.55297738          0.0     
O36  O    1.0     -0.06619779         0.05449765          0.55107813          0.0     
V37  V    1.0     0.41591489          0.05480134          0.05820326          0.0     
V38  V    1.0     0.91591489          0.05480134          0.05820326          0.0     
V39  V    1.0     0.16591489          0.55480134          0.05820326          0.0     
V40  V    1.0     0.66591489          0.55480134          0.05820326          0.0     
V41  V    1.0     0.16591489          0.05480134          0.20303793          0.0     
V42  V    1.0     0.66591489          0.05480134          0.20303793          0.0     
V43  V    1.0     0.41591489          0.55480134          0.20303793          0.0     
V44  V    1.0     0.91591489          0.55480134          0.20303793          0.0     
V45  V    1.0     0.4202442           0.05505263          0.34974877          0.0     
V46  V    1.0     0.9208775           0.05519453          0.34775911          0.0     
V47  V    1.0     0.18398721          0.55509442          0.3473796           0.0     
V48  V    1.0     0.66917656          0.55504359          0.34604853          0.0     
V49  V    1.0     0.21258818          0.0553299           0.50330989          0.0     
V50  V    1.0     0.71074096          0.05574355          0.49823931          0.0     
V51  V    1.0     -0.05958829         0.55529691          0.48517147          0.0     
Ru52 Ru   1.0     0.41183947          0.55556636          0.50031391          0.0     
