data_HCOVRh
_audit_creation_method        'pos2cif.py'        
_cell_length_a                5.64711014          
_cell_length_b                6.450147843790429   
_cell_length_c                22.267278180501698  
_cell_angle_alpha             90.0                
_cell_angle_beta              90.0                
_cell_angle_gamma             90.0                
_symmetry_space_group_H-M     'P1'                
_symmetry_Int_Tables_number   '1'                 
_symmetry_cell_setting        'triclinic'         
loop_                         
_symmetry_equiv_pos_as_xyz    
x,y,z                         

loop_                         
_atom_site_label              
_atom_site_type_symbol        
_atom_site_occupancy          
_atom_site_fract_x            
_atom_site_fract_y            
_atom_site_fract_z            
_atom_site_U_iso_or_equiv     
H1   H    1.0     0.40898928          0.39208404          0.60644975          0.0     
H2   H    1.0     0.56728964          0.6370346           0.60696942          0.0     
H3   H    1.0     0.24806791          0.63624196          0.60748893          0.0     
C4   C    1.0     0.4076571           0.55468682          0.59230352          0.0     
O5   O    1.0     0.41591489          0.55480134          0.0                 0.0     
O6   O    1.0     0.91591489          0.55480134          0.0                 0.0     
O7   O    1.0     0.16591489          0.25573134          0.05820326          0.0     
O8   O    1.0     0.66591489          0.25573134          0.05820326          0.0     
O9   O    1.0     0.16591489          0.85387134          0.05820326          0.0     
O10  O    1.0     0.66591489          0.85387134          0.05820326          0.0     
O11  O    1.0     0.41591489          0.55480134          0.11640652          0.0     
O12  O    1.0     0.91591489          0.55480134          0.11640652          0.0     
O13  O    1.0     0.41591489          0.05480134          0.14483467          0.0     
O14  O    1.0     0.91591489          0.05480134          0.14483467          0.0     
O15  O    1.0     0.16591489          0.35387134          0.20303793          0.0     
O16  O    1.0     0.66591489          0.35387134          0.20303793          0.0     
O17  O    1.0     0.16591489          0.75573134          0.20303793          0.0     
O18  O    1.0     0.66591489          0.75573134          0.20303793          0.0     
O19  O    1.0     0.41591489          0.05480134          0.26124119          0.0     
O20  O    1.0     0.91591489          0.05480134          0.26124119          0.0     
O21  O    1.0     0.41531583          0.55511119          0.28797479          0.0     
O22  O    1.0     0.91424163          0.55496738          0.28964089          0.0     
O23  O    1.0     0.16086147          0.25672439          0.34815248          0.0     
O24  O    1.0     0.65934484          0.25507484          0.34816678          0.0     
O25  O    1.0     0.16062422          0.85289645          0.34845768          0.0     
O26  O    1.0     0.659366            0.85461209          0.3484668           0.0     
O27  O    1.0     0.41502838          0.55436797          0.40350526          0.0     
O28  O    1.0     -0.08011843         0.55378351          0.40554664          0.0     
O29  O    1.0     0.40892791          0.05618703          0.43991932          0.0     
O30  O    1.0     -0.1030603          0.05628814          0.43461356          0.0     
O31  O    1.0     0.1473343           0.34841792          0.50044585          0.0     
O32  O    1.0     0.68716368          0.36246147          0.50071117          0.0     
O33  O    1.0     0.14747121          0.76231045          0.49932949          0.0     
O34  O    1.0     0.68743984          0.74808147          0.49984788          0.0     
O35  O    1.0     0.4279598           0.05340985          0.5540835           0.0     
O36  O    1.0     -0.07644739         0.05423412          0.55037128          0.0     
V37  V    1.0     0.41591489          0.05480134          0.05820326          0.0     
V38  V    1.0     0.91591489          0.05480134          0.05820326          0.0     
V39  V    1.0     0.16591489          0.55480134          0.05820326          0.0     
V40  V    1.0     0.66591489          0.55480134          0.05820326          0.0     
V41  V    1.0     0.16591489          0.05480134          0.20303793          0.0     
V42  V    1.0     0.66591489          0.05480134          0.20303793          0.0     
V43  V    1.0     0.41591489          0.55480134          0.20303793          0.0     
V44  V    1.0     0.91591489          0.55480134          0.20303793          0.0     
V45  V    1.0     0.41853616          0.05496711          0.35150536          0.0     
V46  V    1.0     0.92171745          0.05488692          0.3472115           0.0     
V47  V    1.0     0.18597152          0.55481688          0.34784371          0.0     
V48  V    1.0     0.66595268          0.55483063          0.34495675          0.0     
V49  V    1.0     0.19425497          0.05527335          0.50716095          0.0     
V50  V    1.0     0.69433009          0.05590801          0.49424042          0.0     
V51  V    1.0     -0.0684905          0.55512216          0.4843048           0.0     
Rh52 Rh   1.0     0.41235397          0.55554437          0.50065962          0.0     
