data_HCOVCr
_audit_creation_method        'pos2cif.py by jyxu'
_cell_length_a                5.64711014          
_cell_length_b                6.45014784          
_cell_length_c                22.26727818         
_cell_angle_alpha             90.0                
_cell_angle_beta              90.0                
_cell_angle_gamma             90.0                
_symmetry_space_group_H-M     'P1'                
_symmetry_Int_Tables_number   '1'                 
_symmetry_cell_setting        'triclinic'         
loop_                         
_symmetry_equiv_pos_as_xyz    
x,y,z                         

loop_                         
_atom_site_label              
_atom_site_type_symbol        
_atom_site_occupancy          
_atom_site_fract_x            
_atom_site_fract_y            
_atom_site_fract_z            
_atom_site_U_iso_or_equiv     
H1        H         1.0     0.4158952           0.39091445          0.60573687          0.0     
H2        H         1.0     0.57525916          0.63473219          0.6075626           0.0     
H3        H         1.0     0.25644695          0.63463338          0.60752771          0.0     
C1        C         1.0     0.41596297          0.55395389          0.59196715          0.0     
O1        O         1.0     0.41591489          0.55480134          0.0                 0.0     
O2        O         1.0     -0.08408511         0.55480134          0.0                 0.0     
O3        O         1.0     0.16591489          0.25573134          0.05820326          0.0     
O4        O         1.0     0.66591489          0.25573134          0.05820326          0.0     
O5        O         1.0     0.16591489          0.85387134          0.05820326          0.0     
O6        O         1.0     0.66591489          0.85387134          0.05820326          0.0     
O7        O         1.0     0.41591489          0.55480134          0.11640652          0.0     
O8        O         1.0     -0.08408511         0.55480134          0.11640652          0.0     
O9        O         1.0     -0.08408511         0.05480134          0.14483467          0.0     
O10       O         1.0     0.41591489          0.05480134          0.14483467          0.0     
O11       O         1.0     0.16591489          0.35387134          0.20303793          0.0     
O12       O         1.0     0.66591489          0.35387134          0.20303793          0.0     
O13       O         1.0     0.16591489          0.75573134          0.20303793          0.0     
O14       O         1.0     0.66591489          0.75573134          0.20303793          0.0     
O15       O         1.0     0.41591489          0.05480134          0.26124119          0.0     
O16       O         1.0     -0.08408511         0.05480134          0.26124119          0.0     
O17       O         1.0     0.41584555          0.55509056          0.28791582          0.0     
O18       O         1.0     -0.0843209          0.55483169          0.28947779          0.0     
O19       O         1.0     0.16541626          0.2555473           0.34757295          0.0     
O20       O         1.0     0.6654612           0.2554371           0.34758736          0.0     
O21       O         1.0     0.16516805          0.8538882           0.3479485           0.0     
O22       O         1.0     0.66559798          0.85399833          0.34795565          0.0     
O23       O         1.0     0.4158474           0.55388893          0.40413817          0.0     
O24       O         1.0     -0.08399494         0.55323078          0.40419568          0.0     
O25       O         1.0     0.41577187          0.05642906          0.43643006          0.0     
O26       O         1.0     -0.08444534         0.05655151          0.43600791          0.0     
O27       O         1.0     0.15384765          0.36077585          0.49847108          0.0     
O28       O         1.0     0.67829567          0.36085928          0.4985002           0.0     
O29       O         1.0     0.15366941          0.75013151          0.49706007          0.0     
O30       O         1.0     0.67845098          0.75005036          0.49707898          0.0     
O31       O         1.0     0.41611662          0.05324444          0.54871215          0.0     
O32       O         1.0     -0.08377286         0.05378384          0.54970339          0.0     
V1        V         1.0     0.41591489          0.05480134          0.05820326          0.0     
V2        V         1.0     -0.08408511         0.05480134          0.05820326          0.0     
V3        V         1.0     0.16591489          0.55480134          0.05820326          0.0     
V4        V         1.0     0.66591489          0.55480134          0.05820326          0.0     
V5        V         1.0     0.16591489          0.05480134          0.20303793          0.0     
V6        V         1.0     0.66591489          0.05480134          0.20303793          0.0     
V7        V         1.0     0.41591489          0.55480134          0.20303793          0.0     
V8        V         1.0     -0.08408511         0.55480134          0.20303793          0.0     
V9        V         1.0     0.17671304          0.5549036           0.34640253          0.0     
V10       V         1.0     0.65692314          0.55489637          0.3461062           0.0     
V11       V         1.0     0.41650259          0.05499991          0.35191751          0.0     
V12       V         1.0     -0.08331395         0.05499289          0.35123434          0.0     
V13       V         1.0     -0.08389029         0.55557216          0.48307041          0.0     
V14       V         1.0     0.16497033          0.05562141          0.49987412          0.0     
V15       V         1.0     0.66811741          0.05563484          0.49970466          0.0     
Cr1       Cr        1.0     0.41612984          0.55512562          0.50027204          0.0     
