data_HCOVTi
_audit_creation_method        'pos2cif.py'        
_cell_length_a                5.64711014          
_cell_length_b                6.450147843790429   
_cell_length_c                22.267278180501698  
_cell_angle_alpha             90.0                
_cell_angle_beta              90.0                
_cell_angle_gamma             90.0                
_symmetry_space_group_H-M     'P1'                
_symmetry_Int_Tables_number   '1'                 
_symmetry_cell_setting        'triclinic'         
loop_                         
_symmetry_equiv_pos_as_xyz    
x,y,z                         

loop_                         
_atom_site_label              
_atom_site_type_symbol        
_atom_site_occupancy          
_atom_site_fract_x            
_atom_site_fract_y            
_atom_site_fract_z            
_atom_site_U_iso_or_equiv     
H1   H    1.0     0.41550232          0.38947487          0.61999018          0.0     
H2   H    1.0     0.57458491          0.63195791          0.62247269          0.0     
H3   H    1.0     0.25688965          0.63236471          0.62237521          0.0     
C4   C    1.0     0.41568361          0.55257596          0.60566672          0.0     
O5   O    1.0     0.41591489          0.55480134          0.0                 0.0     
O6   O    1.0     0.91591489          0.55480134          0.0                 0.0     
O7   O    1.0     0.16591489          0.25573134          0.05820326          0.0     
O8   O    1.0     0.66591489          0.25573134          0.05820326          0.0     
O9   O    1.0     0.16591489          0.85387134          0.05820326          0.0     
O10  O    1.0     0.66591489          0.85387134          0.05820326          0.0     
O11  O    1.0     0.41591489          0.55480134          0.11640652          0.0     
O12  O    1.0     0.91591489          0.55480134          0.11640652          0.0     
O13  O    1.0     0.41591489          0.05480134          0.14483467          0.0     
O14  O    1.0     0.91591489          0.05480134          0.14483467          0.0     
O15  O    1.0     0.16591489          0.35387134          0.20303793          0.0     
O16  O    1.0     0.66591489          0.35387134          0.20303793          0.0     
O17  O    1.0     0.16591489          0.75573134          0.20303793          0.0     
O18  O    1.0     0.66591489          0.75573134          0.20303793          0.0     
O19  O    1.0     0.41591489          0.05480134          0.26124119          0.0     
O20  O    1.0     0.91591489          0.05480134          0.26124119          0.0     
O21  O    1.0     0.41519857          0.55536053          0.28809488          0.0     
O22  O    1.0     0.91412527          0.55518394          0.2901238           0.0     
O23  O    1.0     0.16002121          0.25786769          0.34818358          0.0     
O24  O    1.0     0.65952599          0.25504628          0.34832786          0.0     
O25  O    1.0     0.15985262          0.85252199          0.34851906          0.0     
O26  O    1.0     0.65958503          0.85534011          0.34863623          0.0     
O27  O    1.0     0.41682126          0.5547783           0.40490867          0.0     
O28  O    1.0     -0.08213663         0.55442951          0.40570092          0.0     
O29  O    1.0     0.40740081          0.0565516           0.43829983          0.0     
O30  O    1.0     -0.09872951         0.05686278          0.43538439          0.0     
O31  O    1.0     0.15926434          0.35959061          0.5002526           0.0     
O32  O    1.0     0.67779939          0.36127792          0.50078498          0.0     
O33  O    1.0     0.1589848           0.75294331          0.4993127           0.0     
O34  O    1.0     0.67804776          0.75135801          0.49994208          0.0     
O35  O    1.0     0.42771769          0.05447671          0.55277653          0.0     
O36  O    1.0     -0.07267579         0.05530748          0.55031942          0.0     
V37  V    1.0     0.41591489          0.05480134          0.05820326          0.0     
V38  V    1.0     0.91591489          0.05480134          0.05820326          0.0     
V39  V    1.0     0.16591489          0.55480134          0.05820326          0.0     
V40  V    1.0     0.66591489          0.55480134          0.05820326          0.0     
V41  V    1.0     0.16591489          0.05480134          0.20303793          0.0     
V42  V    1.0     0.66591489          0.05480134          0.20303793          0.0     
V43  V    1.0     0.41591489          0.55480134          0.20303793          0.0     
V44  V    1.0     0.91591489          0.55480134          0.20303793          0.0     
V45  V    1.0     0.4178676           0.05530845          0.35203632          0.0     
V46  V    1.0     0.92145953          0.05534182          0.34691458          0.0     
V47  V    1.0     0.18996476          0.55525238          0.34912067          0.0     
V48  V    1.0     0.66454791          0.55524074          0.34436865          0.0     
V49  V    1.0     0.19604199          0.05590554          0.50464587          0.0     
V50  V    1.0     0.69950294          0.05613778          0.49571336          0.0     
V51  V    1.0     -0.07869423         0.55618501          0.48338496          0.0     
Ti52 Ti   1.0     0.42029429          0.55613605          0.51225058          0.0     
