data_HCOVMn
_audit_creation_method        'pos2cif.py by jyxu'
_cell_length_a                5.64711014          
_cell_length_b                6.45014784          
_cell_length_c                22.26727818         
_cell_angle_alpha             90.0                
_cell_angle_beta              90.0                
_cell_angle_gamma             90.0                
_symmetry_space_group_H-M     'P1'                
_symmetry_Int_Tables_number   '1'                 
_symmetry_cell_setting        'triclinic'         
loop_                         
_symmetry_equiv_pos_as_xyz    
x,y,z                         

loop_                         
_atom_site_label              
_atom_site_type_symbol        
_atom_site_occupancy          
_atom_site_fract_x            
_atom_site_fract_y            
_atom_site_fract_z            
_atom_site_U_iso_or_equiv     
H1        H         1.0     0.41597757          0.39013305          0.60639383          0.0     
H2        H         1.0     0.5761732           0.63600896          0.60734001          0.0     
H3        H         1.0     0.25570954          0.63592887          0.60729059          0.0     
C1        C         1.0     0.41600223          0.55383287          0.59330238          0.0     
O1        O         1.0     0.41591489          0.55480134          0.0                 0.0     
O2        O         1.0     -0.08408511         0.55480134          0.0                 0.0     
O3        O         1.0     0.16591489          0.25573134          0.05820326          0.0     
O4        O         1.0     0.66591489          0.25573134          0.05820326          0.0     
O5        O         1.0     0.16591489          0.85387134          0.05820326          0.0     
O6        O         1.0     0.66591489          0.85387134          0.05820326          0.0     
O7        O         1.0     0.41591489          0.55480134          0.11640652          0.0     
O8        O         1.0     -0.08408511         0.55480134          0.11640652          0.0     
O9        O         1.0     -0.08408511         0.05480134          0.14483467          0.0     
O10       O         1.0     0.41591489          0.05480134          0.14483467          0.0     
O11       O         1.0     0.16591489          0.35387134          0.20303793          0.0     
O12       O         1.0     0.66591489          0.35387134          0.20303793          0.0     
O13       O         1.0     0.16591489          0.75573134          0.20303793          0.0     
O14       O         1.0     0.66591489          0.75573134          0.20303793          0.0     
O15       O         1.0     0.41591489          0.05480134          0.26124119          0.0     
O16       O         1.0     -0.08408511         0.05480134          0.26124119          0.0     
O17       O         1.0     0.4159926           0.55482285          0.28759789          0.0     
O18       O         1.0     -0.0840311          0.55472637          0.29055751          0.0     
O19       O         1.0     0.1660708           0.25581676          0.34830254          0.0     
O20       O         1.0     0.66578765          0.2557921           0.34830513          0.0     
O21       O         1.0     0.16590668          0.85374751          0.34836355          0.0     
O22       O         1.0     0.66587632          0.85377196          0.34837109          0.0     
O23       O         1.0     0.41599053          0.5545918           0.40518397          0.0     
O24       O         1.0     -0.08399336         0.55412732          0.40437194          0.0     
O25       O         1.0     0.41592276          0.05521452          0.43744069          0.0     
O26       O         1.0     -0.08406428         0.05547015          0.43699464          0.0     
O27       O         1.0     0.15764444          0.36409705          0.49988702          0.0     
O28       O         1.0     0.67446139          0.36411702          0.49988961          0.0     
O29       O         1.0     0.15737259          0.7462695           0.49901829          0.0     
O30       O         1.0     0.67477714          0.74624747          0.49902709          0.0     
O31       O         1.0     0.41612289          0.05362704          0.55009841          0.0     
O32       O         1.0     -0.08388996         0.05424841          0.55048676          0.0     
V1        V         1.0     0.41591489          0.05480134          0.05820326          0.0     
V2        V         1.0     -0.08408511         0.05480134          0.05820326          0.0     
V3        V         1.0     0.16591489          0.55480134          0.05820326          0.0     
V4        V         1.0     0.66591489          0.55480134          0.05820326          0.0     
V5        V         1.0     0.16591489          0.05480134          0.20303793          0.0     
V6        V         1.0     0.66591489          0.05480134          0.20303793          0.0     
V7        V         1.0     0.41591489          0.55480134          0.20303793          0.0     
V8        V         1.0     -0.08408511         0.55480134          0.20303793          0.0     
V9        V         1.0     0.18016015          0.55491208          0.34633502          0.0     
V10       V         1.0     0.65197106          0.55491198          0.34631798          0.0     
V11       V         1.0     0.41605608          0.05487853          0.35275471          0.0     
V12       V         1.0     -0.0839211          0.05494372          0.35143997          0.0     
V13       V         1.0     -0.08391299         0.5546542           0.48254157          0.0     
V14       V         1.0     0.16572537          0.05458251          0.50066649          0.0     
V15       V         1.0     0.66680328          0.0545895           0.50067029          0.0     
Mn1       Mn        1.0     0.41607408          0.55497329          0.50281574          0.0     
