data_HCOV
_audit_creation_method        'pos2cif.py by jyxu'
_cell_length_a                5.64711014          
_cell_length_b                6.45014784          
_cell_length_c                22.26727818         
_cell_angle_alpha             90.0                
_cell_angle_beta              90.0                
_cell_angle_gamma             90.0                
_symmetry_space_group_H-M     'P1'                
_symmetry_Int_Tables_number   '1'                 
_symmetry_cell_setting        'triclinic'         
loop_                         
_symmetry_equiv_pos_as_xyz    
x,y,z                         

loop_                         
_atom_site_label              
_atom_site_type_symbol        
_atom_site_occupancy          
_atom_site_fract_x            
_atom_site_fract_y            
_atom_site_fract_z            
_atom_site_U_iso_or_equiv     
H1        H         1.0     0.40988285          0.38854995          0.61112793          0.0     
H2        H         1.0     0.57297913          0.62979024          0.61453297          0.0     
H3        H         1.0     0.25473378          0.63443848          0.61280619          0.0     
C1        C         1.0     0.41363582          0.5520098           0.59747566          0.0     
O1        O         1.0     0.41591             0.5548              0.0                 0.0     
O2        O         1.0     -0.08409            0.5548              0.0                 0.0     
O3        O         1.0     0.16591             0.25573             0.0582              0.0     
O4        O         1.0     0.66591             0.25573             0.0582              0.0     
O5        O         1.0     0.16591             0.85387             0.0582              0.0     
O6        O         1.0     0.66591             0.85387             0.0582              0.0     
O7        O         1.0     0.41591             0.5548              0.11641             0.0     
O8        O         1.0     -0.08409            0.5548              0.11641             0.0     
O9        O         1.0     -0.08409            0.0548              0.14483             0.0     
O10       O         1.0     0.41591             0.0548              0.14483             0.0     
O11       O         1.0     0.16591             0.35387             0.20304             0.0     
O12       O         1.0     0.66591             0.35387             0.20304             0.0     
O13       O         1.0     0.16591             0.75573             0.20304             0.0     
O14       O         1.0     0.66591             0.75573             0.20304             0.0     
O15       O         1.0     0.41591             0.0548              0.26124             0.0     
O16       O         1.0     -0.08409            0.0548              0.26124             0.0     
O17       O         1.0     0.41486734          0.55530547          0.28828698          0.0     
O18       O         1.0     -0.0870999          0.55514778          0.29024266          0.0     
O19       O         1.0     0.16135167          0.25846648          0.3481417           0.0     
O20       O         1.0     0.65975144          0.25453714          0.34815596          0.0     
O21       O         1.0     0.16120799          0.85172757          0.3484963           0.0     
O22       O         1.0     0.65978145          0.85569853          0.34847571          0.0     
O23       O         1.0     0.41669407          0.55447741          0.40595671          0.0     
O24       O         1.0     -0.08335717         0.55433122          0.40566958          0.0     
O25       O         1.0     0.40943474          0.05657582          0.43861797          0.0     
O26       O         1.0     -0.09698309         0.05664871          0.43456107          0.0     
O27       O         1.0     0.1670826           0.36263879          0.49967128          0.0     
O28       O         1.0     0.67295081          0.36014175          0.50017152          0.0     
O29       O         1.0     0.16680494          0.74963463          0.49853545          0.0     
O30       O         1.0     0.67281043          0.75203014          0.49923218          0.0     
O31       O         1.0     0.42652333          0.05417669          0.55336942          0.0     
O32       O         1.0     -0.07212809         0.05485825          0.54926323          0.0     
V1        V         1.0     0.41591             0.0548              0.0582              0.0     
V2        V         1.0     -0.08409            0.0548              0.0582              0.0     
V3        V         1.0     0.16591             0.5548              0.0582              0.0     
V4        V         1.0     0.66591             0.5548              0.0582              0.0     
V5        V         1.0     0.16591             0.0548              0.20304             0.0     
V6        V         1.0     0.66591             0.0548              0.20304             0.0     
V7        V         1.0     0.41591             0.5548              0.20304             0.0     
V8        V         1.0     -0.08409            0.5548              0.20304             0.0     
V9        V         1.0     0.19037386          0.55515682          0.34935414          0.0     
V10       V         1.0     0.66593038          0.5551384           0.34454694          0.0     
V11       V         1.0     -0.075519           0.05523865          0.34672696          0.0     
V12       V         1.0     0.41921315          0.05522915          0.35150348          0.0     
V13       V         1.0     0.42929597          0.55544068          0.50507937          0.0     
V14       V         1.0     -0.07660024         0.55612934          0.48385091          0.0     
V15       V         1.0     0.19569489          0.05550728          0.50555695          0.0     
V16       V         1.0     0.69563339          0.05581323          0.49358558          0.0     
