data_HORuIr
_audit_creation_method        'pos2cif.py'        
_cell_length_a                6.36215693          
_cell_length_b                6.38448299          
_cell_length_c                22.02159841         
_cell_angle_alpha             90.0                
_cell_angle_beta              90.0                
_cell_angle_gamma             90.0                
_symmetry_space_group_H-M     'P1'                
_symmetry_Int_Tables_number   '1'                 
_symmetry_cell_setting        'triclinic'         
loop_                         
_symmetry_equiv_pos_as_xyz    
x,y,z                         

loop_                         
_atom_site_label              
_atom_site_type_symbol        
_atom_site_occupancy          
_atom_site_fract_x            
_atom_site_fract_y            
_atom_site_fract_z            
_atom_site_U_iso_or_equiv     
H1   H    1.0     0.58913704          -0.14450967         0.59224766          0.0     
O2   O    1.0     0.08911             0.35546             0.0                 0.0     
O3   O    1.0     0.58911             0.35546             0.0                 0.0     
O4   O    1.0     0.33911             0.04693             0.05551             0.0     
O5   O    1.0     0.83911             0.04693             0.05551             0.0     
O6   O    1.0     0.33911             0.66399             0.05551             0.0     
O7   O    1.0     0.83911             0.66399             0.05551             0.0     
O8   O    1.0     0.08911             0.35546             0.11102             0.0     
O9   O    1.0     0.58911             0.35546             0.11102             0.0     
O10  O    1.0     0.58911             -0.14454            0.14496             0.0     
O11  O    1.0     0.08911             -0.14454            0.14496             0.0     
O12  O    1.0     0.33911             0.16399             0.20047             0.0     
O13  O    1.0     0.83911             0.16399             0.20047             0.0     
O14  O    1.0     0.33911             0.54693             0.20047             0.0     
O15  O    1.0     0.83911             0.54693             0.20047             0.0     
O16  O    1.0     0.08911             -0.14454            0.25598             0.0     
O17  O    1.0     0.58911             -0.14454            0.25598             0.0     
O18  O    1.0     0.08912659          0.35539397          0.28997634          0.0     
O19  O    1.0     0.58914666          0.35540574          0.28963995          0.0     
O20  O    1.0     0.33940183          0.04673377          0.3462176           0.0     
O21  O    1.0     0.838906            0.04672838          0.34621598          0.0     
O22  O    1.0     0.33938925          0.66420732          0.34617969          0.0     
O23  O    1.0     0.83888274          0.66420172          0.34618003          0.0     
O24  O    1.0     0.08916113          0.35579308          0.40032222          0.0     
O25  O    1.0     0.58914778          0.35559205          0.40062312          0.0     
O26  O    1.0     0.0891593           -0.14451587         0.4354153           0.0     
O27  O    1.0     0.5891698           -0.14451695         0.4364975           0.0     
O28  O    1.0     0.340572            0.1652207           0.49357482          0.0     
O29  O    1.0     0.83775947          0.16521532          0.4935917           0.0     
O30  O    1.0     0.34059189          0.5457004           0.49359025          0.0     
O31  O    1.0     0.83772283          0.54567634          0.49360281          0.0     
O32  O    1.0     0.08915914          -0.14451512         0.54705872          0.0     
O33  O    1.0     0.58916815          -0.14449808         0.54822215          0.0     
Ru34 Ru   1.0     0.58915614          0.35543752          0.48641322          0.0     
Ir35 Ir   1.0     0.33911             0.35546             0.05551             0.0     
Ir36 Ir   1.0     0.83911             0.35546             0.05551             0.0     
Ir37 Ir   1.0     0.08911             -0.14454            0.05551             0.0     
Ir38 Ir   1.0     0.58911             -0.14454            0.05551             0.0     
Ir39 Ir   1.0     0.08911             0.35546             0.20047             0.0     
Ir40 Ir   1.0     0.58911             0.35546             0.20047             0.0     
Ir41 Ir   1.0     0.33911             -0.14454            0.20047             0.0     
Ir42 Ir   1.0     0.83911             -0.14454            0.20047             0.0     
Ir43 Ir   1.0     0.83861741          0.3554561           0.34531942          0.0     
Ir44 Ir   1.0     0.33966626          0.35546165          0.34531744          0.0     
Ir45 Ir   1.0     0.08913316          -0.14453694         0.34554352          0.0     
Ir46 Ir   1.0     0.58913565          -0.14454084         0.3465222           0.0     
Ir47 Ir   1.0     0.08915163          0.35543682          0.48892241          0.0     
Ir48 Ir   1.0     0.33260222          -0.14454975         0.49194491          0.0     
Ir49 Ir   1.0     0.84571921          -0.14455451         0.4919475           0.0     
