data_HOIrMo
_audit_creation_method        'pos2cif.py'        
_cell_length_a                6.36215693          
_cell_length_b                6.384482994809508   
_cell_length_c                22.021598412435427  
_cell_angle_alpha             90.0                
_cell_angle_beta              90.0                
_cell_angle_gamma             90.0                
_symmetry_space_group_H-M     'P1'                
_symmetry_Int_Tables_number   '1'                 
_symmetry_cell_setting        'triclinic'         
loop_                         
_symmetry_equiv_pos_as_xyz    
x,y,z                         

loop_                         
_atom_site_label              
_atom_site_type_symbol        
_atom_site_occupancy          
_atom_site_fract_x            
_atom_site_fract_y            
_atom_site_fract_z            
_atom_site_U_iso_or_equiv     
H1   H    1.0     -0.58908976         -0.85548955         0.59351757          0.0     
O2   O    1.0     -0.08911189         -0.35545641         0.0                 0.0     
O3   O    1.0     -0.58911189         -0.35545641         0.0                 0.0     
O4   O    1.0     -0.33911189         -0.04692641         0.05551082          0.0     
O5   O    1.0     -0.83911189         -0.04692641         0.05551082          0.0     
O6   O    1.0     -0.33911189         -0.66398641         0.05551082          0.0     
O7   O    1.0     -0.83911189         -0.66398641         0.05551082          0.0     
O8   O    1.0     -0.08911189         -0.35545641         0.11102164          0.0     
O9   O    1.0     -0.58911189         -0.35545641         0.11102164          0.0     
O10  O    1.0     -0.08911189         -0.85545641         0.14495957          0.0     
O11  O    1.0     -0.58911189         -0.85545641         0.14495957          0.0     
O12  O    1.0     -0.33911189         -0.16398641         0.20047039          0.0     
O13  O    1.0     -0.83911189         -0.16398641         0.20047039          0.0     
O14  O    1.0     -0.33911189         -0.54692641         0.20047039          0.0     
O15  O    1.0     -0.83911189         -0.54692641         0.20047039          0.0     
O16  O    1.0     -0.08911189         -0.85545641         0.25598121          0.0     
O17  O    1.0     -0.58911189         -0.85545641         0.25598121          0.0     
O18  O    1.0     -0.08917298         -0.35541117         0.28963533          0.0     
O19  O    1.0     -0.5891834          -0.3554378          0.2890584           0.0     
O20  O    1.0     -0.33938373         -0.04670126         0.34610622          0.0     
O21  O    1.0     -0.83895573         -0.046699           0.34610179          0.0     
O22  O    1.0     -0.33936433         -0.66419946         0.34607835          0.0     
O23  O    1.0     -0.83893512         -0.66419566         0.34607619          0.0     
O24  O    1.0     -1.08918505         -0.35573203         0.40032702          0.0     
O25  O    1.0     -0.58918757         -0.35549843         0.40018467          0.0     
O26  O    1.0     -1.08914177         -0.85549896         0.43564938          0.0     
O27  O    1.0     -0.58916421         -0.85547886         0.43717564          0.0     
O28  O    1.0     -0.34392885         -0.16483066         0.4945984           0.0     
O29  O    1.0     -0.83430202         -0.16486755         0.49459789          0.0     
O30  O    1.0     -0.34394403         -0.54607144         0.49459294          0.0     
O31  O    1.0     -0.83426807         -0.54611226         0.49460472          0.0     
O32  O    1.0     -1.08912603         -0.85557174         0.54770104          0.0     
O33  O    1.0     -0.58911012         -0.85553026         0.54947843          0.0     
Ir34 Ir   1.0     -0.33911189         -0.35545641         0.05551082          0.0     
Ir35 Ir   1.0     -0.83911189         -0.35545641         0.05551082          0.0     
Ir36 Ir   1.0     -0.08911189         -0.85545641         0.05551082          0.0     
Ir37 Ir   1.0     -0.58911189         -0.85545641         0.05551082          0.0     
Ir38 Ir   1.0     -0.08911189         -0.35545641         0.20047039          0.0     
Ir39 Ir   1.0     -0.58911189         -0.35545641         0.20047039          0.0     
Ir40 Ir   1.0     -0.33911189         -0.85545641         0.20047039          0.0     
Ir41 Ir   1.0     -0.83911189         -0.85545641         0.20047039          0.0     
Ir42 Ir   1.0     -0.33846393         -0.3554381          0.34448007          0.0     
Ir43 Ir   1.0     -0.83989238         -0.35543993         0.34447962          0.0     
Ir44 Ir   1.0     -0.08913985         -0.85544786         0.34573325          0.0     
Ir45 Ir   1.0     -0.58914701         -0.85544171         0.34659069          0.0     
Ir46 Ir   1.0     -1.0891049          -0.3554552          0.48973391          0.0     
Ir47 Ir   1.0     -0.33225595         -0.85545931         0.49279727          0.0     
Ir48 Ir   1.0     -0.84599618         -0.85548561         0.49280034          0.0     
Mo49 Mo   1.0     -0.58910819         -0.35545884         0.48510835          0.0     
