data_HOOsIr
_audit_creation_method        'pos2cif.py'        
_cell_length_a                6.36215693          
_cell_length_b                6.38448299          
_cell_length_c                22.02159841         
_cell_angle_alpha             90.0                
_cell_angle_beta              90.0                
_cell_angle_gamma             90.0                
_symmetry_space_group_H-M     'P1'                
_symmetry_Int_Tables_number   '1'                 
_symmetry_cell_setting        'triclinic'         
loop_                         
_symmetry_equiv_pos_as_xyz    
x,y,z                         

loop_                         
_atom_site_label              
_atom_site_type_symbol        
_atom_site_occupancy          
_atom_site_fract_x            
_atom_site_fract_y            
_atom_site_fract_z            
_atom_site_U_iso_or_equiv     
H1   H    1.0     -0.58913711         -0.85547311         0.59244748          0.0     
O2   O    1.0     -0.08911            -0.35546            0.0                 0.0     
O3   O    1.0     -0.58911            -0.35546            0.0                 0.0     
O4   O    1.0     -0.33911            -0.04693            0.05551             0.0     
O5   O    1.0     -0.83911            -0.04693            0.05551             0.0     
O6   O    1.0     -0.33911            -0.66399            0.05551             0.0     
O7   O    1.0     -0.83911            -0.66399            0.05551             0.0     
O8   O    1.0     -0.08911            -0.35546            0.11102             0.0     
O9   O    1.0     -0.58911            -0.35546            0.11102             0.0     
O10  O    1.0     -0.58911            -0.85546            0.14496             0.0     
O11  O    1.0     -0.08911            -0.85546            0.14496             0.0     
O12  O    1.0     -0.33911            -0.16399            0.20047             0.0     
O13  O    1.0     -0.83911            -0.16399            0.20047             0.0     
O14  O    1.0     -0.33911            -0.54693            0.20047             0.0     
O15  O    1.0     -0.83911            -0.54693            0.20047             0.0     
O16  O    1.0     -0.08911            -0.85546            0.25598             0.0     
O17  O    1.0     -0.58911            -0.85546            0.25598             0.0     
O18  O    1.0     -0.08913768         -0.35538378         0.28987002          0.0     
O19  O    1.0     -0.58914945         -0.35539935         0.28948396          0.0     
O20  O    1.0     -0.33921136         -0.04670666         0.34619481          0.0     
O21  O    1.0     -0.83908812         -0.04670829         0.34619475          0.0     
O22  O    1.0     -0.33920681         -0.66421621         0.34615612          0.0     
O23  O    1.0     -0.83906752         -0.66421569         0.34615684          0.0     
O24  O    1.0     -1.08915338         -0.3557914          0.40042467          0.0     
O25  O    1.0     -0.58914629         -0.35558917         0.40057108          0.0     
O26  O    1.0     -1.08915895         -0.85549207         0.43543165          0.0     
O27  O    1.0     -0.58916444         -0.85549368         0.43658159          0.0     
O28  O    1.0     -0.34229139         -0.16618811         0.49387986          0.0     
O29  O    1.0     -0.83604108         -0.16617958         0.49387853          0.0     
O30  O    1.0     -0.3422864          -0.5447789          0.49388295          0.0     
O31  O    1.0     -0.83603413         -0.54476877         0.49389159          0.0     
O32  O    1.0     -1.08915473         -0.85549256         0.54725448          0.0     
O33  O    1.0     -0.58916924         -0.85549717         0.54842197          0.0     
Os34 Os   1.0     -0.58915046         -0.35547448         0.48587205          0.0     
Ir35 Ir   1.0     -0.33911            -0.35546            0.05551             0.0     
Ir36 Ir   1.0     -0.83911            -0.35546            0.05551             0.0     
Ir37 Ir   1.0     -0.08911            -0.85546            0.05551             0.0     
Ir38 Ir   1.0     -0.58911            -0.85546            0.05551             0.0     
Ir39 Ir   1.0     -0.08911            -0.35546            0.20047             0.0     
Ir40 Ir   1.0     -0.58911            -0.35546            0.20047             0.0     
Ir41 Ir   1.0     -0.33911            -0.85546            0.20047             0.0     
Ir42 Ir   1.0     -0.83911            -0.85546            0.20047             0.0     
Ir43 Ir   1.0     -0.83950401         -0.35545039         0.34503476          0.0     
Ir44 Ir   1.0     -0.33878183         -0.35545138         0.34503367          0.0     
Ir45 Ir   1.0     -0.0891323          -0.85545575         0.34554292          0.0     
Ir46 Ir   1.0     -0.58913386         -0.85545572         0.34646871          0.0     
Ir47 Ir   1.0     -1.0891542          -0.35545387         0.48976232          0.0     
Ir48 Ir   1.0     -0.33278237         -0.85546499         0.49215048          0.0     
Ir49 Ir   1.0     -0.84553727         -0.85546113         0.49215029          0.0     
