data_HOIrTi
_audit_creation_method        'pos2cif.py'        
_cell_length_a                6.36215693          
_cell_length_b                6.384482994809508   
_cell_length_c                22.021598412435427  
_cell_angle_alpha             90.0                
_cell_angle_beta              90.0                
_cell_angle_gamma             90.0                
_symmetry_space_group_H-M     'P1'                
_symmetry_Int_Tables_number   '1'                 
_symmetry_cell_setting        'triclinic'         
loop_                         
_symmetry_equiv_pos_as_xyz    
x,y,z                         

loop_                         
_atom_site_label              
_atom_site_type_symbol        
_atom_site_occupancy          
_atom_site_fract_x            
_atom_site_fract_y            
_atom_site_fract_z            
_atom_site_U_iso_or_equiv     
H1   H    1.0     0.58908594          -0.14451054         0.5924722           0.0     
O2   O    1.0     0.08911189          0.35545641          0.0                 0.0     
O3   O    1.0     0.58911189          0.35545641          0.0                 0.0     
O4   O    1.0     0.33911189          0.04692641          0.05551082          0.0     
O5   O    1.0     0.83911189          0.04692641          0.05551082          0.0     
O6   O    1.0     0.33911189          0.66398641          0.05551082          0.0     
O7   O    1.0     0.83911189          0.66398641          0.05551082          0.0     
O8   O    1.0     0.08911189          0.35545641          0.11102164          0.0     
O9   O    1.0     0.58911189          0.35545641          0.11102164          0.0     
O10  O    1.0     0.08911189          -0.14454359         0.14495957          0.0     
O11  O    1.0     0.58911189          -0.14454359         0.14495957          0.0     
O12  O    1.0     0.33911189          0.16398641          0.20047039          0.0     
O13  O    1.0     0.83911189          0.16398641          0.20047039          0.0     
O14  O    1.0     0.33911189          0.54692641          0.20047039          0.0     
O15  O    1.0     0.83911189          0.54692641          0.20047039          0.0     
O16  O    1.0     0.08911189          -0.14454359         0.25598121          0.0     
O17  O    1.0     0.58911189          -0.14454359         0.25598121          0.0     
O18  O    1.0     0.08918351          0.35541622          0.28950735          0.0     
O19  O    1.0     0.58919266          0.35543867          0.28915914          0.0     
O20  O    1.0     0.33974046          0.04688098          0.34599898          0.0     
O21  O    1.0     0.83860636          0.04688298          0.34599268          0.0     
O22  O    1.0     0.33972645          0.66398578          0.34597718          0.0     
O23  O    1.0     0.83859511          0.66398509          0.3459798           0.0     
O24  O    1.0     0.08918896          0.35560608          0.39991631          0.0     
O25  O    1.0     0.58919894          0.35548244          0.40042089          0.0     
O26  O    1.0     0.08908723          -0.14451235         0.43539148          0.0     
O27  O    1.0     0.58910901          -0.14448284         0.43664764          0.0     
O28  O    1.0     0.34667783          0.16585713          0.49468863          0.0     
O29  O    1.0     0.83135941          0.1658156           0.49470338          0.0     
O30  O    1.0     0.34666399          0.54516484          0.49469076          0.0     
O31  O    1.0     0.83133004          0.54519842          0.49470037          0.0     
O32  O    1.0     0.08907332          -0.14446144         0.54649842          0.0     
O33  O    1.0     0.58909898          -0.14440549         0.54840226          0.0     
Ir34 Ir   1.0     0.33911189          0.35545641          0.05551082          0.0     
Ir35 Ir   1.0     0.83911189          0.35545641          0.05551082          0.0     
Ir36 Ir   1.0     0.08911189          -0.14454359         0.05551082          0.0     
Ir37 Ir   1.0     0.58911189          -0.14454359         0.05551082          0.0     
Ir38 Ir   1.0     0.08911189          0.35545641          0.20047039          0.0     
Ir39 Ir   1.0     0.58911189          0.35545641          0.20047039          0.0     
Ir40 Ir   1.0     0.33911189          -0.14454359         0.20047039          0.0     
Ir41 Ir   1.0     0.83911189          -0.14454359         0.20047039          0.0     
Ir42 Ir   1.0     0.3394276           0.35542721          0.34445355          0.0     
Ir43 Ir   1.0     0.83895162          0.35542898          0.34445087          0.0     
Ir44 Ir   1.0     0.08914207          -0.14456649         0.34577797          0.0     
Ir45 Ir   1.0     0.58914669          -0.14456726         0.34649489          0.0     
Ir46 Ir   1.0     0.08897519          0.35549411          0.48761219          0.0     
Ir47 Ir   1.0     0.33236531          -0.14449786         0.4920128           0.0     
Ir48 Ir   1.0     0.84578305          -0.14449776         0.49201597          0.0     
Ti49 Ti   1.0     0.58904234          0.35551579          0.4843111           0.0     
