data_HOIrGe
_audit_creation_method        'pos2cif.py'        
_cell_length_a                6.36215693          
_cell_length_b                6.384482994809508   
_cell_length_c                22.021598412435427  
_cell_angle_alpha             90.0                
_cell_angle_beta              90.0                
_cell_angle_gamma             90.0                
_symmetry_space_group_H-M     'P1'                
_symmetry_Int_Tables_number   '1'                 
_symmetry_cell_setting        'triclinic'         
loop_                         
_symmetry_equiv_pos_as_xyz    
x,y,z                         

loop_                         
_atom_site_label              
_atom_site_type_symbol        
_atom_site_occupancy          
_atom_site_fract_x            
_atom_site_fract_y            
_atom_site_fract_z            
_atom_site_U_iso_or_equiv     
H1   H    1.0     0.58907453          -0.14457688         0.59200699          0.0     
O2   O    1.0     0.08911189          0.35545641          0.0                 0.0     
O3   O    1.0     0.58911189          0.35545641          0.0                 0.0     
O4   O    1.0     0.33911189          0.04692641          0.05551082          0.0     
O5   O    1.0     0.83911189          0.04692641          0.05551082          0.0     
O6   O    1.0     0.33911189          0.66398641          0.05551082          0.0     
O7   O    1.0     0.83911189          0.66398641          0.05551082          0.0     
O8   O    1.0     0.08911189          0.35545641          0.11102164          0.0     
O9   O    1.0     0.58911189          0.35545641          0.11102164          0.0     
O10  O    1.0     0.08911189          -0.14454359         0.14495957          0.0     
O11  O    1.0     0.58911189          -0.14454359         0.14495957          0.0     
O12  O    1.0     0.33911189          0.16398641          0.20047039          0.0     
O13  O    1.0     0.83911189          0.16398641          0.20047039          0.0     
O14  O    1.0     0.33911189          0.54692641          0.20047039          0.0     
O15  O    1.0     0.83911189          0.54692641          0.20047039          0.0     
O16  O    1.0     0.08911189          -0.14454359         0.25598121          0.0     
O17  O    1.0     0.58911189          -0.14454359         0.25598121          0.0     
O18  O    1.0     0.08917618          0.35541565          0.28954532          0.0     
O19  O    1.0     0.58919354          0.35542773          0.28943783          0.0     
O20  O    1.0     0.33958367          0.0470116           0.34573605          0.0     
O21  O    1.0     0.83879672          0.04698935          0.345747            0.0     
O22  O    1.0     0.33956762          0.663873            0.34573852          0.0     
O23  O    1.0     0.83876851          0.66387085          0.34573683          0.0     
O24  O    1.0     0.08920747          0.35559713          0.40012816          0.0     
O25  O    1.0     0.58918966          0.35547657          0.40070618          0.0     
O26  O    1.0     0.08910862          -0.14450033         0.43530876          0.0     
O27  O    1.0     0.58914014          -0.14450332         0.43639319          0.0     
O28  O    1.0     0.34595901          0.16921774          0.49526149          0.0     
O29  O    1.0     0.83213417          0.16918085          0.49529228          0.0     
O30  O    1.0     0.34599231          0.54184517          0.49525456          0.0     
O31  O    1.0     0.8321545           0.54181455          0.49533776          0.0     
O32  O    1.0     0.08914872          -0.14444653         0.54614293          0.0     
O33  O    1.0     0.58910081          -0.14434826         0.54799631          0.0     
Ir34 Ir   1.0     0.33911189          0.35545641          0.05551082          0.0     
Ir35 Ir   1.0     0.83911189          0.35545641          0.05551082          0.0     
Ir36 Ir   1.0     0.08911189          -0.14454359         0.05551082          0.0     
Ir37 Ir   1.0     0.58911189          -0.14454359         0.05551082          0.0     
Ir38 Ir   1.0     0.08911189          0.35545641          0.20047039          0.0     
Ir39 Ir   1.0     0.58911189          0.35545641          0.20047039          0.0     
Ir40 Ir   1.0     0.33911189          -0.14454359         0.20047039          0.0     
Ir41 Ir   1.0     0.83911189          -0.14454359         0.20047039          0.0     
Ir42 Ir   1.0     0.338753            0.35543679          0.34464326          0.0     
Ir43 Ir   1.0     0.83962766          0.35542285          0.344646            0.0     
Ir44 Ir   1.0     0.08915627          -0.14456494         0.34567898          0.0     
Ir45 Ir   1.0     0.58915982          -0.14456525         0.34625802          0.0     
Ir46 Ir   1.0     0.08897923          0.35550931          0.48808121          0.0     
Ir47 Ir   1.0     0.33415682          -0.14447969         0.49175292          0.0     
Ir48 Ir   1.0     0.84406083          -0.14451061         0.49176363          0.0     
Ge49 Ge   1.0     0.58899045          0.35548429          0.48351777          0.0     
