data_HORhIr
_audit_creation_method        'pos2cif.py'        
_cell_length_a                6.36215693          
_cell_length_b                6.38448299          
_cell_length_c                22.02159841         
_cell_angle_alpha             90.0                
_cell_angle_beta              90.0                
_cell_angle_gamma             90.0                
_symmetry_space_group_H-M     'P1'                
_symmetry_Int_Tables_number   '1'                 
_symmetry_cell_setting        'triclinic'         
loop_                         
_symmetry_equiv_pos_as_xyz    
x,y,z                         

loop_                         
_atom_site_label              
_atom_site_type_symbol        
_atom_site_occupancy          
_atom_site_fract_x            
_atom_site_fract_y            
_atom_site_fract_z            
_atom_site_U_iso_or_equiv     
H1   H    1.0     -0.5890976          -0.85546143         0.59189924          0.0     
O2   O    1.0     -0.08911            -0.35546            0.0                 0.0     
O3   O    1.0     -0.58911            -0.35546            0.0                 0.0     
O4   O    1.0     -0.33911            -0.04693            0.05551             0.0     
O5   O    1.0     -0.83911            -0.04693            0.05551             0.0     
O6   O    1.0     -0.33911            -0.66399            0.05551             0.0     
O7   O    1.0     -0.83911            -0.66399            0.05551             0.0     
O8   O    1.0     -0.08911            -0.35546            0.11102             0.0     
O9   O    1.0     -0.58911            -0.35546            0.11102             0.0     
O10  O    1.0     -0.58911            -0.85546            0.14496             0.0     
O11  O    1.0     -0.08911            -0.85546            0.14496             0.0     
O12  O    1.0     -0.33911            -0.16399            0.20047             0.0     
O13  O    1.0     -0.83911            -0.16399            0.20047             0.0     
O14  O    1.0     -0.33911            -0.54693            0.20047             0.0     
O15  O    1.0     -0.83911            -0.54693            0.20047             0.0     
O16  O    1.0     -0.08911            -0.85546            0.25598             0.0     
O17  O    1.0     -0.58911            -0.85546            0.25598             0.0     
O18  O    1.0     -0.08915555         -0.35535927         0.28953683          0.0     
O19  O    1.0     -0.58914663         -0.35537814         0.289366            0.0     
O20  O    1.0     -0.33956709         -0.04687248         0.34596824          0.0     
O21  O    1.0     -0.83874603         -0.04686577         0.34596267          0.0     
O22  O    1.0     -0.3395352          -0.6640706          0.34591705          0.0     
O23  O    1.0     -0.83874341         -0.66406461         0.34591524          0.0     
O24  O    1.0     -1.08914219         -0.3558856          0.39961211          0.0     
O25  O    1.0     -0.58915261         -0.3559122          0.39935322          0.0     
O26  O    1.0     -1.08916433         -0.85547197         0.43551233          0.0     
O27  O    1.0     -0.58917924         -0.85546428         0.43639263          0.0     
O28  O    1.0     -0.33728787         -0.16467665         0.49548948          0.0     
O29  O    1.0     -0.84107259         -0.16466821         0.49548732          0.0     
O30  O    1.0     -0.3372895          -0.54616367         0.49550883          0.0     
O31  O    1.0     -0.8410619          -0.54616598         0.49551379          0.0     
O32  O    1.0     -1.08917512         -0.85547713         0.54678153          0.0     
O33  O    1.0     -0.58915272         -0.85559428         0.54782173          0.0     
Rh34 Rh   1.0     -0.58917288         -0.35538737         0.48842115          0.0     
Ir35 Ir   1.0     -0.33911            -0.35546            0.05551             0.0     
Ir36 Ir   1.0     -0.83911            -0.35546            0.05551             0.0     
Ir37 Ir   1.0     -0.08911            -0.85546            0.05551             0.0     
Ir38 Ir   1.0     -0.58911            -0.85546            0.05551             0.0     
Ir39 Ir   1.0     -0.08911            -0.35546            0.20047             0.0     
Ir40 Ir   1.0     -0.58911            -0.35546            0.20047             0.0     
Ir41 Ir   1.0     -0.33911            -0.85546            0.20047             0.0     
Ir42 Ir   1.0     -0.83911            -0.85546            0.20047             0.0     
Ir43 Ir   1.0     -0.83827709         -0.3554487          0.34481623          0.0     
Ir44 Ir   1.0     -0.34001702         -0.35545417         0.34481847          0.0     
Ir45 Ir   1.0     -0.08913367         -0.8554604          0.34566552          0.0     
Ir46 Ir   1.0     -0.58913956         -0.85545235         0.34642241          0.0     
Ir47 Ir   1.0     -1.08916814         -0.3553979          0.48787653          0.0     
Ir48 Ir   1.0     -0.33275183         -0.85541462         0.49175866          0.0     
Ir49 Ir   1.0     -0.84558572         -0.85541007         0.49176517          0.0     
