data_HOVIr
_audit_creation_method        'pos2cif.py by jyxu'
_cell_length_a                5.64711014          
_cell_length_b                6.450147843790429   
_cell_length_c                22.267278180501698  
_cell_angle_alpha             90.0                
_cell_angle_beta              90.0                
_cell_angle_gamma             90.0                
_symmetry_space_group_H-M     'P1'                
_symmetry_Int_Tables_number   '1'                 
_symmetry_cell_setting        'triclinic'         
loop_                         
_symmetry_equiv_pos_as_xyz    
x,y,z                         

loop_                         
_atom_site_label              
_atom_site_type_symbol        
_atom_site_occupancy          
_atom_site_fract_x            
_atom_site_fract_y            
_atom_site_fract_z            
_atom_site_U_iso_or_equiv     
H1        H         1.0     0.41858989          0.05491943          0.59755528          0.0     
O1        O         1.0     0.41591489          0.55480134          0.0                 0.0     
O2        O         1.0     -0.08408511         0.55480134          0.0                 0.0     
O3        O         1.0     0.16591489          0.25573134          0.05820326          0.0     
O4        O         1.0     0.66591489          0.25573134          0.05820326          0.0     
O5        O         1.0     0.16591489          0.85387134          0.05820326          0.0     
O6        O         1.0     0.66591489          0.85387134          0.05820326          0.0     
O7        O         1.0     0.41591489          0.55480134          0.11640652          0.0     
O8        O         1.0     -0.08408511         0.55480134          0.11640652          0.0     
O9        O         1.0     0.41591489          0.05480134          0.14483467          0.0     
O10       O         1.0     -0.08408511         0.05480134          0.14483467          0.0     
O11       O         1.0     0.16591489          0.35387134          0.20303793          0.0     
O12       O         1.0     0.66591489          0.35387134          0.20303793          0.0     
O13       O         1.0     0.16591489          0.75573134          0.20303793          0.0     
O14       O         1.0     0.66591489          0.75573134          0.20303793          0.0     
O15       O         1.0     0.41591489          0.05480134          0.26124119          0.0     
O16       O         1.0     -0.08408511         0.05480134          0.26124119          0.0     
O17       O         1.0     0.42161728          0.55496844          0.28770092          0.0     
O18       O         1.0     -0.08197193         0.55479997          0.29030238          0.0     
O19       O         1.0     0.16565768          0.25813903          0.34856979          0.0     
O20       O         1.0     0.66570603          0.25550806          0.34932737          0.0     
O21       O         1.0     0.1654823           0.85160684          0.34859052          0.0     
O22       O         1.0     0.66564801          0.85425657          0.34932655          0.0     
O23       O         1.0     0.42050363          0.55496412          0.40480966          0.0     
O24       O         1.0     -0.0760619          0.55478751          0.40632285          0.0     
O25       O         1.0     0.40467841          0.05477661          0.43953597          0.0     
O26       O         1.0     -0.08851549         0.05477011          0.43748321          0.0     
O27       O         1.0     0.13998007          0.34802802          0.50558951          0.0     
O28       O         1.0     0.67986934          0.36249235          0.49962809          0.0     
O29       O         1.0     0.14005714          0.76142939          0.50561337          0.0     
O30       O         1.0     0.67989481          0.74691139          0.49965673          0.0     
O31       O         1.0     0.41913769          0.0547476           0.55403894          0.0     
O32       O         1.0     -0.09598255         0.05469322          0.55652137          0.0     
V1        V         1.0     0.41591489          0.05480134          0.05820326          0.0     
V2        V         1.0     -0.08408511         0.05480134          0.05820326          0.0     
V3        V         1.0     0.16591489          0.55480134          0.05820326          0.0     
V4        V         1.0     0.66591489          0.55480134          0.05820326          0.0     
V5        V         1.0     0.16591489          0.05480134          0.20303793          0.0     
V6        V         1.0     0.66591489          0.05480134          0.20303793          0.0     
V7        V         1.0     0.41591489          0.55480134          0.20303793          0.0     
V8        V         1.0     -0.08408511         0.55480134          0.20303793          0.0     
V9        V         1.0     0.42416598          0.05489435          0.35176911          0.0     
V10       V         1.0     -0.07295398         0.05490536          0.34713427          0.0     
V11       V         1.0     0.18995017          0.55492757          0.34665468          0.0     
V12       V         1.0     0.66388942          0.55493417          0.34582797          0.0     
V13       V         1.0     0.15859296          0.05475701          0.4951091           0.0     
V14       V         1.0     0.69237968          0.05482963          0.50104883          0.0     
V15       V         1.0     -0.07215917         0.55480483          0.48393468          0.0     
Ir1       Ir        1.0     0.40133776          0.55471029          0.49710784          0.0     
