data_HOVMn
_audit_creation_method        'pos2cif.py by jyxu'
_cell_length_a                5.64711014          
_cell_length_b                6.45014784          
_cell_length_c                22.26727818         
_cell_angle_alpha             90.0                
_cell_angle_beta              90.0                
_cell_angle_gamma             90.0                
_symmetry_space_group_H-M     'P1'                
_symmetry_Int_Tables_number   '1'                 
_symmetry_cell_setting        'triclinic'         
loop_                         
_symmetry_equiv_pos_as_xyz    
x,y,z                         

loop_                         
_atom_site_label              
_atom_site_type_symbol        
_atom_site_occupancy          
_atom_site_fract_x            
_atom_site_fract_y            
_atom_site_fract_z            
_atom_site_U_iso_or_equiv     
H1        H         1.0     0.41603018          0.05467197          0.59779556          0.0     
O1        O         1.0     0.41591489          0.55480134          0.0                 0.0     
O2        O         1.0     -0.08408511         0.55480134          0.0                 0.0     
O3        O         1.0     0.16591489          0.25573134          0.05820326          0.0     
O4        O         1.0     0.66591489          0.25573134          0.05820326          0.0     
O5        O         1.0     0.16591489          0.85387134          0.05820326          0.0     
O6        O         1.0     0.66591489          0.85387134          0.05820326          0.0     
O7        O         1.0     0.41591489          0.55480134          0.11640652          0.0     
O8        O         1.0     -0.08408511         0.55480134          0.11640652          0.0     
O9        O         1.0     -0.08408511         0.05480134          0.14483467          0.0     
O10       O         1.0     0.41591489          0.05480134          0.14483467          0.0     
O11       O         1.0     0.16591489          0.35387134          0.20303793          0.0     
O12       O         1.0     0.66591489          0.35387134          0.20303793          0.0     
O13       O         1.0     0.16591489          0.75573134          0.20303793          0.0     
O14       O         1.0     0.66591489          0.75573134          0.20303793          0.0     
O15       O         1.0     0.41591489          0.05480134          0.26124119          0.0     
O16       O         1.0     -0.08408511         0.05480134          0.26124119          0.0     
O17       O         1.0     0.41604194          0.55475206          0.28860351          0.0     
O18       O         1.0     -0.08398482         0.55467952          0.28990228          0.0     
O19       O         1.0     0.16515503          0.25547685          0.34886032          0.0     
O20       O         1.0     0.66672027          0.25548987          0.34886911          0.0     
O21       O         1.0     0.16509511          0.85407225          0.34881135          0.0     
O22       O         1.0     0.66678525          0.85409768          0.34882187          0.0     
O23       O         1.0     0.41604334          0.55484792          0.40371018          0.0     
O24       O         1.0     -0.08394192         0.55486359          0.40659969          0.0     
O25       O         1.0     0.41600159          0.05453771          0.43935142          0.0     
O26       O         1.0     -0.08400593         0.05447176          0.4375147           0.0     
O27       O         1.0     0.15836759          0.36267786          0.50158119          0.0     
O28       O         1.0     0.67378092          0.36264813          0.5015771           0.0     
O29       O         1.0     0.15842369          0.74644117          0.50168753          0.0     
O30       O         1.0     0.67377527          0.74639578          0.50171967          0.0     
O31       O         1.0     0.41609265          0.05465627          0.55429744          0.0     
O32       O         1.0     -0.08391541         0.05465264          0.55486283          0.0     
V1        V         1.0     0.41591489          0.05480134          0.05820326          0.0     
V2        V         1.0     -0.08408511         0.05480134          0.05820326          0.0     
V3        V         1.0     0.16591489          0.55480134          0.05820326          0.0     
V4        V         1.0     0.66591489          0.55480134          0.05820326          0.0     
V5        V         1.0     0.16591489          0.05480134          0.20303793          0.0     
V6        V         1.0     0.66591489          0.05480134          0.20303793          0.0     
V7        V         1.0     0.41591489          0.55480134          0.20303793          0.0     
V8        V         1.0     -0.08408511         0.55480134          0.20303793          0.0     
V9        V         1.0     0.1714001           0.55480322          0.34600926          0.0     
V10       V         1.0     0.66080298          0.55480513          0.3459929           0.0     
V11       V         1.0     0.41611685          0.05478103          0.35415698          0.0     
V12       V         1.0     -0.08389677         0.05477415          0.34665962          0.0     
V13       V         1.0     -0.08391631         0.55473711          0.48489724          0.0     
V14       V         1.0     0.14950764          0.05471064          0.49816819          0.0     
V15       V         1.0     0.68277117          0.05471571          0.49820978          0.0     
Mn1       Mn        1.0     0.41609017          0.55459022          0.49254515          0.0     
