data_HOVMo
_audit_creation_method        'pos2cif.py'        
_cell_length_a                5.64711014          
_cell_length_b                6.450147843790429   
_cell_length_c                22.267278180501698  
_cell_angle_alpha             90.0                
_cell_angle_beta              90.0                
_cell_angle_gamma             90.0                
_symmetry_space_group_H-M     'P1'                
_symmetry_Int_Tables_number   '1'                 
_symmetry_cell_setting        'triclinic'         
loop_                         
_symmetry_equiv_pos_as_xyz    
x,y,z                         

loop_                         
_atom_site_label              
_atom_site_type_symbol        
_atom_site_occupancy          
_atom_site_fract_x            
_atom_site_fract_y            
_atom_site_fract_z            
_atom_site_U_iso_or_equiv     
H1   H    1.0     0.41601051          0.05481583          0.60202948          0.0     
O2   O    1.0     0.41591489          0.55480134          0.0                 0.0     
O3   O    1.0     0.91591489          0.55480134          0.0                 0.0     
O4   O    1.0     0.16591489          0.25573134          0.05820326          0.0     
O5   O    1.0     0.66591489          0.25573134          0.05820326          0.0     
O6   O    1.0     0.16591489          0.85387134          0.05820326          0.0     
O7   O    1.0     0.66591489          0.85387134          0.05820326          0.0     
O8   O    1.0     0.41591489          0.55480134          0.11640652          0.0     
O9   O    1.0     0.91591489          0.55480134          0.11640652          0.0     
O10  O    1.0     0.41591489          0.05480134          0.14483467          0.0     
O11  O    1.0     0.91591489          0.05480134          0.14483467          0.0     
O12  O    1.0     0.16591489          0.35387134          0.20303793          0.0     
O13  O    1.0     0.66591489          0.35387134          0.20303793          0.0     
O14  O    1.0     0.16591489          0.75573134          0.20303793          0.0     
O15  O    1.0     0.66591489          0.75573134          0.20303793          0.0     
O16  O    1.0     0.41591489          0.05480134          0.26124119          0.0     
O17  O    1.0     0.91591489          0.05480134          0.26124119          0.0     
O18  O    1.0     0.41596803          0.55474447          0.28973937          0.0     
O19  O    1.0     0.91598247          0.55478573          0.28789757          0.0     
O20  O    1.0     0.16577083          0.2573246           0.35009964          0.0     
O21  O    1.0     0.66607092          0.25732371          0.35008809          0.0     
O22  O    1.0     0.16574209          0.85223493          0.35007777          0.0     
O23  O    1.0     0.66606536          0.8522406           0.35006927          0.0     
O24  O    1.0     0.41601484          0.55480692          0.40605837          0.0     
O25  O    1.0     -0.08399595         0.55477815          0.40858411          0.0     
O26  O    1.0     0.4160092           0.05469829          0.44278485          0.0     
O27  O    1.0     -0.08399914         0.05471409          0.4401643           0.0     
O28  O    1.0     0.15960921          0.35986678          0.50775989          0.0     
O29  O    1.0     0.67248593          0.35987056          0.50777357          0.0     
O30  O    1.0     0.15956167          0.74954688          0.50781118          0.0     
O31  O    1.0     0.67253451          0.74954962          0.50781771          0.0     
O32  O    1.0     0.41603091          0.0547094           0.55855889          0.0     
O33  O    1.0     -0.08394077         0.05473132          0.55688792          0.0     
V34  V    1.0     0.41591489          0.05480134          0.05820326          0.0     
V35  V    1.0     0.91591489          0.05480134          0.05820326          0.0     
V36  V    1.0     0.16591489          0.55480134          0.05820326          0.0     
V37  V    1.0     0.66591489          0.55480134          0.05820326          0.0     
V38  V    1.0     0.16591489          0.05480134          0.20303793          0.0     
V39  V    1.0     0.66591489          0.05480134          0.20303793          0.0     
V40  V    1.0     0.41591489          0.55480134          0.20303793          0.0     
V41  V    1.0     0.91591489          0.55480134          0.20303793          0.0     
V42  V    1.0     0.41599664          0.05478146          0.35325686          0.0     
V43  V    1.0     0.91599049          0.05479342          0.34862322          0.0     
V44  V    1.0     0.15984459          0.55479815          0.34363732          0.0     
V45  V    1.0     0.67216612          0.55479973          0.3436363           0.0     
V46  V    1.0     0.15136056          0.05471738          0.50094824          0.0     
V47  V    1.0     0.68079069          0.05471833          0.50098063          0.0     
V48  V    1.0     -0.08396114         0.55472028          0.48693101          0.0     
Mo49 Mo   1.0     0.41605365          0.5547486           0.48678954          0.0     
