data_HOVTi
_audit_creation_method        'pos2cif.py by jyxu'
_cell_length_a                5.64711014          
_cell_length_b                6.450147843790429   
_cell_length_c                22.267278180501698  
_cell_angle_alpha             90.0                
_cell_angle_beta              90.0                
_cell_angle_gamma             90.0                
_symmetry_space_group_H-M     'P1'                
_symmetry_Int_Tables_number   '1'                 
_symmetry_cell_setting        'triclinic'         
loop_                         
_symmetry_equiv_pos_as_xyz    
x,y,z                         

loop_                         
_atom_site_label              
_atom_site_type_symbol        
_atom_site_occupancy          
_atom_site_fract_x            
_atom_site_fract_y            
_atom_site_fract_z            
_atom_site_U_iso_or_equiv     
H1        H         1.0     0.41598685          0.05477814          0.5986055           0.0     
O1        O         1.0     0.41591489          0.55480134          0.0                 0.0     
O2        O         1.0     -0.08408511         0.55480134          0.0                 0.0     
O3        O         1.0     0.16591489          0.25573134          0.05820326          0.0     
O4        O         1.0     0.66591489          0.25573134          0.05820326          0.0     
O5        O         1.0     0.16591489          0.85387134          0.05820326          0.0     
O6        O         1.0     0.66591489          0.85387134          0.05820326          0.0     
O7        O         1.0     0.41591489          0.55480134          0.11640652          0.0     
O8        O         1.0     -0.08408511         0.55480134          0.11640652          0.0     
O9        O         1.0     0.41591489          0.05480134          0.14483467          0.0     
O10       O         1.0     -0.08408511         0.05480134          0.14483467          0.0     
O11       O         1.0     0.16591489          0.35387134          0.20303793          0.0     
O12       O         1.0     0.66591489          0.35387134          0.20303793          0.0     
O13       O         1.0     0.16591489          0.75573134          0.20303793          0.0     
O14       O         1.0     0.66591489          0.75573134          0.20303793          0.0     
O15       O         1.0     0.41591489          0.05480134          0.26124119          0.0     
O16       O         1.0     -0.08408511         0.05480134          0.26124119          0.0     
O17       O         1.0     0.41602559          0.55476625          0.28914587          0.0     
O18       O         1.0     -0.08395239         0.55475741          0.28872694          0.0     
O19       O         1.0     0.1654726           0.25620326          0.34946877          0.0     
O20       O         1.0     0.6662494           0.25621881          0.34948806          0.0     
O21       O         1.0     0.16542277          0.85335293          0.34946345          0.0     
O22       O         1.0     0.666183            0.85331891          0.34947848          0.0     
O23       O         1.0     0.41603518          0.55483609          0.40553394          0.0     
O24       O         1.0     -0.08399153         0.55469949          0.40793424          0.0     
O25       O         1.0     0.41578789          0.05475736          0.44060276          0.0     
O26       O         1.0     -0.08408997         0.05462686          0.43835269          0.0     
O27       O         1.0     0.15972089          0.3605614           0.50351563          0.0     
O28       O         1.0     0.67215008          0.360578            0.5035148           0.0     
O29       O         1.0     0.15966256          0.74869126          0.50353024          0.0     
O30       O         1.0     0.67223907          0.74866812          0.50351287          0.0     
O31       O         1.0     0.41610883          0.0545472           0.55511023          0.0     
O32       O         1.0     -0.08410567         0.05460388          0.55670421          0.0     
V1        V         1.0     0.41591489          0.05480134          0.05820326          0.0     
V2        V         1.0     -0.08408511         0.05480134          0.05820326          0.0     
V3        V         1.0     0.16591489          0.55480134          0.05820326          0.0     
V4        V         1.0     0.66591489          0.55480134          0.05820326          0.0     
V5        V         1.0     0.16591489          0.05480134          0.20303793          0.0     
V6        V         1.0     0.66591489          0.05480134          0.20303793          0.0     
V7        V         1.0     0.41591489          0.55480134          0.20303793          0.0     
V8        V         1.0     -0.08408511         0.55480134          0.20303793          0.0     
V9        V         1.0     0.41625605          0.05479818          0.35507315          0.0     
V10       V         1.0     -0.08380352         0.05477442          0.34777098          0.0     
V11       V         1.0     0.16439658          0.5548016           0.34472791          0.0     
V12       V         1.0     0.66786505          0.55480347          0.34472143          0.0     
V13       V         1.0     0.14758083          0.05468482          0.49938485          0.0     
V14       V         1.0     0.68543201          0.05468846          0.49962131          0.0     
V15       V         1.0     -0.08391175         0.55463401          0.48634337          0.0     
Ti1       Ti        1.0     0.41606298          0.55470507          0.48704506          0.0     
