data_HOVRu
_audit_creation_method        'pos2cif.py'        
_cell_length_a                5.64711014          
_cell_length_b                6.450147843790429   
_cell_length_c                22.267278180501698  
_cell_angle_alpha             90.0                
_cell_angle_beta              90.0                
_cell_angle_gamma             90.0                
_symmetry_space_group_H-M     'P1'                
_symmetry_Int_Tables_number   '1'                 
_symmetry_cell_setting        'triclinic'         
loop_                         
_symmetry_equiv_pos_as_xyz    
x,y,z                         

loop_                         
_atom_site_label              
_atom_site_type_symbol        
_atom_site_occupancy          
_atom_site_fract_x            
_atom_site_fract_y            
_atom_site_fract_z            
_atom_site_U_iso_or_equiv     
H1   H    1.0     0.41596147          0.05482181          0.5980702           0.0     
O2   O    1.0     0.41591489          0.55480134          0.0                 0.0     
O3   O    1.0     0.91591489          0.55480134          0.0                 0.0     
O4   O    1.0     0.16591489          0.25573134          0.05820326          0.0     
O5   O    1.0     0.66591489          0.25573134          0.05820326          0.0     
O6   O    1.0     0.16591489          0.85387134          0.05820326          0.0     
O7   O    1.0     0.66591489          0.85387134          0.05820326          0.0     
O8   O    1.0     0.41591489          0.55480134          0.11640652          0.0     
O9   O    1.0     0.91591489          0.55480134          0.11640652          0.0     
O10  O    1.0     0.41591489          0.05480134          0.14483467          0.0     
O11  O    1.0     0.91591489          0.05480134          0.14483467          0.0     
O12  O    1.0     0.16591489          0.35387134          0.20303793          0.0     
O13  O    1.0     0.66591489          0.35387134          0.20303793          0.0     
O14  O    1.0     0.16591489          0.75573134          0.20303793          0.0     
O15  O    1.0     0.66591489          0.75573134          0.20303793          0.0     
O16  O    1.0     0.41591489          0.05480134          0.26124119          0.0     
O17  O    1.0     0.91591489          0.05480134          0.26124119          0.0     
O18  O    1.0     0.41605967          0.55480761          0.28770714          0.0     
O19  O    1.0     0.9159623           0.5547394           0.2905363           0.0     
O20  O    1.0     0.16668713          0.25570582          0.34888228          0.0     
O21  O    1.0     0.66433093          0.25557067          0.34892043          0.0     
O22  O    1.0     0.16669014          0.85381827          0.34889253          0.0     
O23  O    1.0     0.66427846          0.85394858          0.34893185          0.0     
O24  O    1.0     0.41590721          0.554736            0.4062339           0.0     
O25  O    1.0     -0.08391487         0.55474889          0.40484558          0.0     
O26  O    1.0     0.41577068          0.05492512          0.44045585          0.0     
O27  O    1.0     -0.08412962         0.05490485          0.43690973          0.0     
O28  O    1.0     0.1488844           0.35646475          0.50138862          0.0     
O29  O    1.0     0.6833017           0.35641486          0.50140678          0.0     
O30  O    1.0     0.14889237          0.75339909          0.50132793          0.0     
O31  O    1.0     0.68329043          0.75344877          0.5013453           0.0     
O32  O    1.0     0.41604517          0.05480464          0.55456061          0.0     
O33  O    1.0     -0.08402398         0.05476938          0.55622248          0.0     
V34  V    1.0     0.41591489          0.05480134          0.05820326          0.0     
V35  V    1.0     0.91591489          0.05480134          0.05820326          0.0     
V36  V    1.0     0.16591489          0.55480134          0.05820326          0.0     
V37  V    1.0     0.66591489          0.55480134          0.05820326          0.0     
V38  V    1.0     0.16591489          0.05480134          0.20303793          0.0     
V39  V    1.0     0.66591489          0.05480134          0.20303793          0.0     
V40  V    1.0     0.41591489          0.55480134          0.20303793          0.0     
V41  V    1.0     0.91591489          0.55480134          0.20303793          0.0     
V42  V    1.0     0.41653768          0.05476582          0.35469044          0.0     
V43  V    1.0     0.91680688          0.05476356          0.34772592          0.0     
V44  V    1.0     0.17618262          0.55475716          0.34523486          0.0     
V45  V    1.0     0.65722419          0.55475589          0.34503167          0.0     
V46  V    1.0     0.14678877          0.05497217          0.49858248          0.0     
V47  V    1.0     0.68571891          0.05497224          0.49869518          0.0     
V48  V    1.0     -0.08397536         0.55495201          0.48276592          0.0     
Ru49 Ru   1.0     0.41615911          0.55487531          0.49056239          0.0     
