data_HOVOs
_audit_creation_method        'pos2cif.py by jyxu'
_cell_length_a                5.64711014          
_cell_length_b                6.450147843790429   
_cell_length_c                22.267278180501698  
_cell_angle_alpha             90.0                
_cell_angle_beta              90.0                
_cell_angle_gamma             90.0                
_symmetry_space_group_H-M     'P1'                
_symmetry_Int_Tables_number   '1'                 
_symmetry_cell_setting        'triclinic'         
loop_                         
_symmetry_equiv_pos_as_xyz    
x,y,z                         

loop_                         
_atom_site_label              
_atom_site_type_symbol        
_atom_site_occupancy          
_atom_site_fract_x            
_atom_site_fract_y            
_atom_site_fract_z            
_atom_site_U_iso_or_equiv     
H1        H         1.0     0.41592176          0.05505467          0.59963959          0.0     
O1        O         1.0     0.41591489          0.55480134          0.0                 0.0     
O2        O         1.0     -0.08408511         0.55480134          0.0                 0.0     
O3        O         1.0     0.16591489          0.25573134          0.05820326          0.0     
O4        O         1.0     0.66591489          0.25573134          0.05820326          0.0     
O5        O         1.0     0.16591489          0.85387134          0.05820326          0.0     
O6        O         1.0     0.66591489          0.85387134          0.05820326          0.0     
O7        O         1.0     0.41591489          0.55480134          0.11640652          0.0     
O8        O         1.0     -0.08408511         0.55480134          0.11640652          0.0     
O9        O         1.0     0.41591489          0.05480134          0.14483467          0.0     
O10       O         1.0     -0.08408511         0.05480134          0.14483467          0.0     
O11       O         1.0     0.16591489          0.35387134          0.20303793          0.0     
O12       O         1.0     0.66591489          0.35387134          0.20303793          0.0     
O13       O         1.0     0.16591489          0.75573134          0.20303793          0.0     
O14       O         1.0     0.66591489          0.75573134          0.20303793          0.0     
O15       O         1.0     0.41591489          0.05480134          0.26124119          0.0     
O16       O         1.0     -0.08408511         0.05480134          0.26124119          0.0     
O17       O         1.0     0.41599618          0.55480007          0.28785781          0.0     
O18       O         1.0     -0.08397357         0.55473773          0.2902515           0.0     
O19       O         1.0     0.1671916           0.25581293          0.34933087          0.0     
O20       O         1.0     0.66448461          0.25580128          0.34934185          0.0     
O21       O         1.0     0.16726596          0.85373544          0.34930753          0.0     
O22       O         1.0     0.66443171          0.85376769          0.34931076          0.0     
O23       O         1.0     0.41592631          0.55475554          0.40678919          0.0     
O24       O         1.0     -0.08399031         0.55486917          0.4054616           0.0     
O25       O         1.0     0.41596174          0.05469374          0.44159604          0.0     
O26       O         1.0     -0.08405592         0.05465567          0.43787176          0.0     
O27       O         1.0     0.15082901          0.35711791          0.50358505          0.0     
O28       O         1.0     0.68137223          0.35704153          0.50365534          0.0     
O29       O         1.0     0.15090183          0.75234569          0.50362679          0.0     
O30       O         1.0     0.68131923          0.75240954          0.50370122          0.0     
O31       O         1.0     0.41605022          0.05479837          0.55611291          0.0     
O32       O         1.0     -0.08389056         0.05475142          0.55722161          0.0     
V1        V         1.0     0.41591489          0.05480134          0.05820326          0.0     
V2        V         1.0     -0.08408511         0.05480134          0.05820326          0.0     
V3        V         1.0     0.16591489          0.55480134          0.05820326          0.0     
V4        V         1.0     0.66591489          0.55480134          0.05820326          0.0     
V5        V         1.0     0.16591489          0.05480134          0.20303793          0.0     
V6        V         1.0     0.66591489          0.05480134          0.20303793          0.0     
V7        V         1.0     0.41591489          0.55480134          0.20303793          0.0     
V8        V         1.0     -0.08408511         0.55480134          0.20303793          0.0     
V9        V         1.0     0.41617959          0.05478228          0.35480876          0.0     
V10       V         1.0     -0.08376202         0.05477194          0.34865692          0.0     
V11       V         1.0     0.17337645          0.55479224          0.34462259          0.0     
V12       V         1.0     0.65897296          0.55479247          0.34457983          0.0     
V13       V         1.0     0.14716867          0.05476255          0.49973682          0.0     
V14       V         1.0     0.68531448          0.05475845          0.49985355          0.0     
V15       V         1.0     -0.08401663         0.55478865          0.48322966          0.0     
Os1       Os        1.0     0.41621074          0.55471921          0.49092613          0.0     
