data_HOVCr
_audit_creation_method        'pos2cif.py by jyxu'
_cell_length_a                5.64711014          
_cell_length_b                6.45014784          
_cell_length_c                22.26727818         
_cell_angle_alpha             90.0                
_cell_angle_beta              90.0                
_cell_angle_gamma             90.0                
_symmetry_space_group_H-M     'P1'                
_symmetry_Int_Tables_number   '1'                 
_symmetry_cell_setting        'triclinic'         
loop_                         
_symmetry_equiv_pos_as_xyz    
x,y,z                         

loop_                         
_atom_site_label              
_atom_site_type_symbol        
_atom_site_occupancy          
_atom_site_fract_x            
_atom_site_fract_y            
_atom_site_fract_z            
_atom_site_U_iso_or_equiv     
H1        H         1.0     0.41600438          0.05476349          0.59837127          0.0     
O1        O         1.0     0.41591489          0.55480134          0.0                 0.0     
O2        O         1.0     -0.08408511         0.55480134          0.0                 0.0     
O3        O         1.0     0.16591489          0.25573134          0.05820326          0.0     
O4        O         1.0     0.66591489          0.25573134          0.05820326          0.0     
O5        O         1.0     0.16591489          0.85387134          0.05820326          0.0     
O6        O         1.0     0.66591489          0.85387134          0.05820326          0.0     
O7        O         1.0     0.41591489          0.55480134          0.11640652          0.0     
O8        O         1.0     -0.08408511         0.55480134          0.11640652          0.0     
O9        O         1.0     -0.08408511         0.05480134          0.14483467          0.0     
O10       O         1.0     0.41591489          0.05480134          0.14483467          0.0     
O11       O         1.0     0.16591489          0.35387134          0.20303793          0.0     
O12       O         1.0     0.66591489          0.35387134          0.20303793          0.0     
O13       O         1.0     0.16591489          0.75573134          0.20303793          0.0     
O14       O         1.0     0.66591489          0.75573134          0.20303793          0.0     
O15       O         1.0     0.41591489          0.05480134          0.26124119          0.0     
O16       O         1.0     -0.08408511         0.05480134          0.26124119          0.0     
O17       O         1.0     0.41599559          0.55478231          0.28819341          0.0     
O18       O         1.0     -0.08401762         0.55472477          0.29109104          0.0     
O19       O         1.0     0.16620437          0.25543143          0.34904248          0.0     
O20       O         1.0     0.66564389          0.2554134           0.34905295          0.0     
O21       O         1.0     0.16611816          0.85409974          0.34901158          0.0     
O22       O         1.0     0.66559459          0.85413003          0.34901784          0.0     
O23       O         1.0     0.41602151          0.55479416          0.40640007          0.0     
O24       O         1.0     -0.0839802          0.55479226          0.40610159          0.0     
O25       O         1.0     0.41599801          0.05461321          0.43956803          0.0     
O26       O         1.0     -0.08401494         0.05457445          0.43763762          0.0     
O27       O         1.0     0.15886349          0.3623287           0.50091567          0.0     
O28       O         1.0     0.67328611          0.36231848          0.50091272          0.0     
O29       O         1.0     0.15881446          0.74685951          0.5009743           0.0     
O30       O         1.0     0.67325513          0.74684745          0.5009808           0.0     
O31       O         1.0     0.41603155          0.05459672          0.55483776          0.0     
O32       O         1.0     -0.0839808          0.05464014          0.55521643          0.0     
V1        V         1.0     0.41591489          0.05480134          0.05820326          0.0     
V2        V         1.0     -0.08408511         0.05480134          0.05820326          0.0     
V3        V         1.0     0.16591489          0.55480134          0.05820326          0.0     
V4        V         1.0     0.66591489          0.55480134          0.05820326          0.0     
V5        V         1.0     0.16591489          0.05480134          0.20303793          0.0     
V6        V         1.0     0.66591489          0.05480134          0.20303793          0.0     
V7        V         1.0     0.41591489          0.55480134          0.20303793          0.0     
V8        V         1.0     -0.08408511         0.55480134          0.20303793          0.0     
V9        V         1.0     0.17462706          0.55479738          0.3457412           0.0     
V10       V         1.0     0.65749158          0.55479553          0.34571931          0.0     
V11       V         1.0     0.41604863          0.05476837          0.35472115          0.0     
V12       V         1.0     -0.08393482         0.05476772          0.34701889          0.0     
V13       V         1.0     -0.08396263         0.55471781          0.48421288          0.0     
V14       V         1.0     0.14903035          0.05472036          0.49842666          0.0     
V15       V         1.0     0.68311988          0.05471584          0.49845359          0.0     
Cr1       Cr        1.0     0.41603564          0.55462988          0.48849746          0.0     
