data_HOVRh
_audit_creation_method        'pos2cif.py by jyxu'
_cell_length_a                5.64711014          
_cell_length_b                6.450147843790429   
_cell_length_c                22.267278180501698  
_cell_angle_alpha             90.0                
_cell_angle_beta              90.0                
_cell_angle_gamma             90.0                
_symmetry_space_group_H-M     'P1'                
_symmetry_Int_Tables_number   '1'                 
_symmetry_cell_setting        'triclinic'         
loop_                         
_symmetry_equiv_pos_as_xyz    
x,y,z                         

loop_                         
_atom_site_label              
_atom_site_type_symbol        
_atom_site_occupancy          
_atom_site_fract_x            
_atom_site_fract_y            
_atom_site_fract_z            
_atom_site_U_iso_or_equiv     
H1        H         1.0     0.41327702          0.0551401           0.59808422          0.0     
O1        O         1.0     0.41591489          0.55480134          0.0                 0.0     
O2        O         1.0     -0.08408511         0.55480134          0.0                 0.0     
O3        O         1.0     0.16591489          0.25573134          0.05820326          0.0     
O4        O         1.0     0.66591489          0.25573134          0.05820326          0.0     
O5        O         1.0     0.16591489          0.85387134          0.05820326          0.0     
O6        O         1.0     0.66591489          0.85387134          0.05820326          0.0     
O7        O         1.0     0.41591489          0.55480134          0.11640652          0.0     
O8        O         1.0     -0.08408511         0.55480134          0.11640652          0.0     
O9        O         1.0     0.41591489          0.05480134          0.14483467          0.0     
O10       O         1.0     -0.08408511         0.05480134          0.14483467          0.0     
O11       O         1.0     0.16591489          0.35387134          0.20303793          0.0     
O12       O         1.0     0.66591489          0.35387134          0.20303793          0.0     
O13       O         1.0     0.16591489          0.75573134          0.20303793          0.0     
O14       O         1.0     0.66591489          0.75573134          0.20303793          0.0     
O15       O         1.0     0.41591489          0.05480134          0.26124119          0.0     
O16       O         1.0     -0.08408511         0.05480134          0.26124119          0.0     
O17       O         1.0     0.42078757          0.55507366          0.28794645          0.0     
O18       O         1.0     -0.0823701          0.5551546           0.29069762          0.0     
O19       O         1.0     0.16525688          0.25785             0.34888529          0.0     
O20       O         1.0     0.66602219          0.25549032          0.34941712          0.0     
O21       O         1.0     0.16513004          0.85240008          0.34898222          0.0     
O22       O         1.0     0.6661143           0.85481998          0.34952448          0.0     
O23       O         1.0     0.42069745          0.55532968          0.40455943          0.0     
O24       O         1.0     -0.07752312         0.55465818          0.40654649          0.0     
O25       O         1.0     0.40676305          0.05544214          0.43959774          0.0     
O26       O         1.0     -0.08898342         0.0553294           0.43812098          0.0     
O27       O         1.0     0.14177065          0.35058139          0.50445943          0.0     
O28       O         1.0     0.68418397          0.36224512          0.50095793          0.0     
O29       O         1.0     0.14096735          0.75989989          0.50452999          0.0     
O30       O         1.0     0.683732            0.74957111          0.50102587          0.0     
O31       O         1.0     0.41931176          0.05576749          0.55458095          0.0     
O32       O         1.0     -0.09168456         0.05656806          0.55729553          0.0     
V1        V         1.0     0.41591489          0.05480134          0.05820326          0.0     
V2        V         1.0     -0.08408511         0.05480134          0.05820326          0.0     
V3        V         1.0     0.16591489          0.55480134          0.05820326          0.0     
V4        V         1.0     0.66591489          0.55480134          0.05820326          0.0     
V5        V         1.0     0.16591489          0.05480134          0.20303793          0.0     
V6        V         1.0     0.66591489          0.05480134          0.20303793          0.0     
V7        V         1.0     0.41591489          0.55480134          0.20303793          0.0     
V8        V         1.0     -0.08408511         0.55480134          0.20303793          0.0     
V9        V         1.0     0.42524542          0.05520054          0.35228634          0.0     
V10       V         1.0     -0.0727297          0.05534337          0.34731909          0.0     
V11       V         1.0     0.19036105          0.55533329          0.34754263          0.0     
V12       V         1.0     0.6645894           0.55529058          0.34578065          0.0     
V13       V         1.0     0.16147459          0.05433949          0.49484947          0.0     
V14       V         1.0     0.69540402          0.05299143          0.50247663          0.0     
V15       V         1.0     -0.0750426          0.55373342          0.48442295          0.0     
Rh1       Rh        1.0     0.40696077          0.55577793          0.49747123          0.0     
