data_HOVGe
_audit_creation_method        'pos2cif.py by jyxu'
_cell_length_a                5.64711014          
_cell_length_b                6.450147843790429   
_cell_length_c                22.267278180501698  
_cell_angle_alpha             90.0                
_cell_angle_beta              90.0                
_cell_angle_gamma             90.0                
_symmetry_space_group_H-M     'P1'                
_symmetry_Int_Tables_number   '1'                 
_symmetry_cell_setting        'triclinic'         
loop_                         
_symmetry_equiv_pos_as_xyz    
x,y,z                         

loop_                         
_atom_site_label              
_atom_site_type_symbol        
_atom_site_occupancy          
_atom_site_fract_x            
_atom_site_fract_y            
_atom_site_fract_z            
_atom_site_U_iso_or_equiv     
H1        H         1.0     0.41603358          0.05458933          0.60009434          0.0     
O1        O         1.0     0.41591489          0.55480134          0.0                 0.0     
O2        O         1.0     -0.08408511         0.55480134          0.0                 0.0     
O3        O         1.0     0.16591489          0.25573134          0.05820326          0.0     
O4        O         1.0     0.66591489          0.25573134          0.05820326          0.0     
O5        O         1.0     0.16591489          0.85387134          0.05820326          0.0     
O6        O         1.0     0.66591489          0.85387134          0.05820326          0.0     
O7        O         1.0     0.41591489          0.55480134          0.11640652          0.0     
O8        O         1.0     -0.08408511         0.55480134          0.11640652          0.0     
O9        O         1.0     0.41591489          0.05480134          0.14483467          0.0     
O10       O         1.0     -0.08408511         0.05480134          0.14483467          0.0     
O11       O         1.0     0.16591489          0.35387134          0.20303793          0.0     
O12       O         1.0     0.66591489          0.35387134          0.20303793          0.0     
O13       O         1.0     0.16591489          0.75573134          0.20303793          0.0     
O14       O         1.0     0.66591489          0.75573134          0.20303793          0.0     
O15       O         1.0     0.41591489          0.05480134          0.26124119          0.0     
O16       O         1.0     -0.08408511         0.05480134          0.26124119          0.0     
O17       O         1.0     0.41606502          0.55468465          0.2897595           0.0     
O18       O         1.0     -0.08396021         0.5546298           0.28901338          0.0     
O19       O         1.0     0.16441362          0.25623481          0.34956184          0.0     
O20       O         1.0     0.66733234          0.2562325           0.34958594          0.0     
O21       O         1.0     0.16435239          0.85318627          0.34950837          0.0     
O22       O         1.0     0.66738253          0.85321567          0.34954808          0.0     
O23       O         1.0     0.41601225          0.55485056          0.40592558          0.0     
O24       O         1.0     -0.08391342         0.55463261          0.40788714          0.0     
O25       O         1.0     0.41584088          0.05465539          0.44006738          0.0     
O26       O         1.0     -0.08407116         0.0545629           0.43898595          0.0     
O27       O         1.0     0.16665756          0.36585549          0.50314665          0.0     
O28       O         1.0     0.66537373          0.36585441          0.50311018          0.0     
O29       O         1.0     0.16663649          0.74348555          0.50315656          0.0     
O30       O         1.0     0.6653673           0.74345954          0.50314681          0.0     
O31       O         1.0     0.41602555          0.05461255          0.55658632          0.0     
O32       O         1.0     -0.08410813         0.05466977          0.55344913          0.0     
V1        V         1.0     0.41591489          0.05480134          0.05820326          0.0     
V2        V         1.0     -0.08408511         0.05480134          0.05820326          0.0     
V3        V         1.0     0.16591489          0.55480134          0.05820326          0.0     
V4        V         1.0     0.66591489          0.55480134          0.05820326          0.0     
V5        V         1.0     0.16591489          0.05480134          0.20303793          0.0     
V6        V         1.0     0.66591489          0.05480134          0.20303793          0.0     
V7        V         1.0     0.41591489          0.55480134          0.20303793          0.0     
V8        V         1.0     -0.08408511         0.55480134          0.20303793          0.0     
V9        V         1.0     0.41619011          0.05470444          0.35227339          0.0     
V10       V         1.0     -0.08381873         0.05472064          0.34720074          0.0     
V11       V         1.0     0.16562621          0.55471062          0.34553706          0.0     
V12       V         1.0     0.66670769          0.55471142          0.34553098          0.0     
V13       V         1.0     0.1554253           0.05467442          0.49852929          0.0     
V14       V         1.0     0.67673822          0.05467827          0.49858364          0.0     
V15       V         1.0     -0.08399029         0.5546766           0.48571647          0.0     
Ge1       Ge        1.0     0.4159818           0.55469011          0.48771436          0.0     
