data_HOIr
_audit_creation_method        'pos2cif.py'        
_cell_length_a                6.36215693          
_cell_length_b                6.38448299          
_cell_length_c                22.02159841         
_cell_angle_alpha             90.0                
_cell_angle_beta              90.0                
_cell_angle_gamma             90.0                
_symmetry_space_group_H-M     'P1'                
_symmetry_Int_Tables_number   '1'                 
_symmetry_cell_setting        'triclinic'         
loop_                         
_symmetry_equiv_pos_as_xyz    
x,y,z                         

loop_                         
_atom_site_label              
_atom_site_type_symbol        
_atom_site_occupancy          
_atom_site_fract_x            
_atom_site_fract_y            
_atom_site_fract_z            
_atom_site_U_iso_or_equiv     
H1   H    1.0     -0.58827465         -0.84809091         0.59241248          0.0     
O2   O    1.0     -0.08911            -0.35546            0.0                 0.0     
O3   O    1.0     -0.58911            -0.35546            0.0                 0.0     
O4   O    1.0     -0.33911            -0.04693            0.05551             0.0     
O5   O    1.0     -0.83911            -0.04693            0.05551             0.0     
O6   O    1.0     -0.33911            -0.66399            0.05551             0.0     
O7   O    1.0     -0.83911            -0.66399            0.05551             0.0     
O8   O    1.0     -0.08911            -0.35546            0.11102             0.0     
O9   O    1.0     -0.58911            -0.35546            0.11102             0.0     
O10  O    1.0     -0.08911            -0.85546            0.14496             0.0     
O11  O    1.0     -0.58911            -0.85546            0.14496             0.0     
O12  O    1.0     -0.33911            -0.16399            0.20047             0.0     
O13  O    1.0     -0.83911            -0.16399            0.20047             0.0     
O14  O    1.0     -0.33911            -0.54693            0.20047             0.0     
O15  O    1.0     -0.83911            -0.54693            0.20047             0.0     
O16  O    1.0     -0.08911            -0.85546            0.25598             0.0     
O17  O    1.0     -0.58911            -0.85546            0.25598             0.0     
O18  O    1.0     -0.08895804         -0.35201286         0.28975685          0.0     
O19  O    1.0     -0.58895563         -0.35185644         0.28964936          0.0     
O20  O    1.0     -0.33918503         -0.66117882         0.34573524          0.0     
O21  O    1.0     -0.83852731         -0.66119939         0.34572217          0.0     
O22  O    1.0     -0.33903781         -0.04391668         0.34680154          0.0     
O23  O    1.0     -0.83866794         -0.0439273          0.34680087          0.0     
O24  O    1.0     -0.58892028         -0.35599927         0.40013976          0.0     
O25  O    1.0     -1.08891076         -0.35671522         0.40024822          0.0     
O26  O    1.0     -1.08832683         -0.84900114         0.4357235           0.0     
O27  O    1.0     -0.58840049         -0.84998247         0.43678623          0.0     
O28  O    1.0     -0.33730951         -0.16042516         0.4951966           0.0     
O29  O    1.0     -0.83891402         -0.16043973         0.49522954          0.0     
O30  O    1.0     -0.33740259         -0.54042158         0.49636099          0.0     
O31  O    1.0     -0.83878773         -0.54039843         0.49639528          0.0     
O32  O    1.0     -1.08821549         -0.85210345         0.54713046          0.0     
O33  O    1.0     -0.58819754         -0.85384305         0.54838476          0.0     
Ir34 Ir   1.0     -0.33911            -0.35546            0.05551             0.0     
Ir35 Ir   1.0     -0.83911            -0.35546            0.05551             0.0     
Ir36 Ir   1.0     -0.08911            -0.85546            0.05551             0.0     
Ir37 Ir   1.0     -0.58911            -0.85546            0.05551             0.0     
Ir38 Ir   1.0     -0.08911            -0.35546            0.20047             0.0     
Ir39 Ir   1.0     -0.58911            -0.35546            0.20047             0.0     
Ir40 Ir   1.0     -0.33911            -0.85546            0.20047             0.0     
Ir41 Ir   1.0     -0.83911            -0.85546            0.20047             0.0     
Ir42 Ir   1.0     -0.33907029         -0.35249552         0.34514687          0.0     
Ir43 Ir   1.0     -0.83880454         -0.35250523         0.34514329          0.0     
Ir44 Ir   1.0     -0.08880343         -0.85238214         0.34569554          0.0     
Ir45 Ir   1.0     -0.58880888         -0.8525025          0.34661724          0.0     
Ir46 Ir   1.0     -0.58795009         -0.35024073         0.48866318          0.0     
Ir47 Ir   1.0     -1.08795429         -0.35046735         0.48893064          0.0     
Ir48 Ir   1.0     -0.84445902         -0.85043704         0.49222504          0.0     
Ir49 Ir   1.0     -0.33196409         -0.85044491         0.49221094          0.0     
