data_HOV
_audit_creation_method        'pos2cif.py'        
_cell_length_a                5.64711014          
_cell_length_b                6.45014784          
_cell_length_c                22.26727818         
_cell_angle_alpha             90.0                
_cell_angle_beta              90.0                
_cell_angle_gamma             90.0                
_symmetry_space_group_H-M     'P1'                
_symmetry_Int_Tables_number   '1'                 
_symmetry_cell_setting        'triclinic'         
loop_                         
_symmetry_equiv_pos_as_xyz    
x,y,z                         

loop_                         
_atom_site_label              
_atom_site_type_symbol        
_atom_site_occupancy          
_atom_site_fract_x            
_atom_site_fract_y            
_atom_site_fract_z            
_atom_site_U_iso_or_equiv     
H1   H    1.0     0.41601178          0.05471974          0.59985222          0.0     
O2   O    1.0     0.41591             0.5548              0.0                 0.0     
O3   O    1.0     0.91591             0.5548              0.0                 0.0     
O4   O    1.0     0.16591             0.25573             0.0582              0.0     
O5   O    1.0     0.66591             0.25573             0.0582              0.0     
O6   O    1.0     0.16591             0.85387             0.0582              0.0     
O7   O    1.0     0.66591             0.85387             0.0582              0.0     
O8   O    1.0     0.41591             0.5548              0.11641             0.0     
O9   O    1.0     0.91591             0.5548              0.11641             0.0     
O10  O    1.0     0.91591             0.0548              0.14483             0.0     
O11  O    1.0     0.41591             0.0548              0.14483             0.0     
O12  O    1.0     0.16591             0.35387             0.20304             0.0     
O13  O    1.0     0.66591             0.35387             0.20304             0.0     
O14  O    1.0     0.16591             0.75573             0.20304             0.0     
O15  O    1.0     0.66591             0.75573             0.20304             0.0     
O16  O    1.0     0.41591             0.0548              0.26124             0.0     
O17  O    1.0     0.91591             0.0548              0.26124             0.0     
O18  O    1.0     0.41599873          0.55477382          0.28878448          0.0     
O19  O    1.0     0.91599059          0.55477725          0.28903717          0.0     
O20  O    1.0     0.16623005          0.25660344          0.34927029          0.0     
O21  O    1.0     0.66563314          0.25660395          0.34927411          0.0     
O22  O    1.0     0.16619761          0.85297229          0.34925428          0.0     
O23  O    1.0     0.66559956          0.8529726           0.34925806          0.0     
O24  O    1.0     0.41597809          0.55476808          0.40702591          0.0     
O25  O    1.0     -0.08401117         0.55475378          0.40713238          0.0     
O26  O    1.0     0.41596339          0.05467189          0.43996998          0.0     
O27  O    1.0     -0.08403559         0.05463788          0.43850679          0.0     
O28  O    1.0     0.16578491          0.36290782          0.50233567          0.0     
O29  O    1.0     0.66624722          0.36291791          0.50233401          0.0     
O30  O    1.0     0.16572222          0.74637484          0.50238246          0.0     
O31  O    1.0     0.66621768          0.74638375          0.50237522          0.0     
O32  O    1.0     0.41600818          0.05466851          0.55635856          0.0     
O33  O    1.0     -0.08400983         0.05471475          0.55394414          0.0     
V34  V    1.0     0.41591             0.0548              0.0582              0.0     
V35  V    1.0     0.91591             0.0548              0.0582              0.0     
V36  V    1.0     0.16591             0.5548              0.0582              0.0     
V37  V    1.0     0.66591             0.5548              0.0582              0.0     
V38  V    1.0     0.16591             0.0548              0.20304             0.0     
V39  V    1.0     0.66591             0.0548              0.20304             0.0     
V40  V    1.0     0.41591             0.5548              0.20304             0.0     
V41  V    1.0     0.91591             0.5548              0.20304             0.0     
V42  V    1.0     0.1664211           0.55484042          0.34456745          0.0     
V43  V    1.0     0.66565188          0.55484028          0.34456518          0.0     
V44  V    1.0     0.91605116          0.05481036          0.34783227          0.0     
V45  V    1.0     0.41605343          0.05481729          0.35291401          0.0     
V46  V    1.0     0.41599407          0.55467498          0.48542077          0.0     
V47  V    1.0     -0.08400559         0.5546811           0.48539638          0.0     
V48  V    1.0     0.15344632          0.0546823           0.49858343          0.0     
V49  V    1.0     0.67865673          0.05468096          0.4986098           0.0     
