data_HCORuIr
_audit_creation_method        'pos2cif.py'        
_cell_length_a                6.36215693          
_cell_length_b                6.38448299          
_cell_length_c                22.02159841         
_cell_angle_alpha             90.0                
_cell_angle_beta              90.0                
_cell_angle_gamma             90.0                
_symmetry_space_group_H-M     'P1'                
_symmetry_Int_Tables_number   '1'                 
_symmetry_cell_setting        'triclinic'         
loop_                         
_symmetry_equiv_pos_as_xyz    
x,y,z                         

loop_                         
_atom_site_label              
_atom_site_type_symbol        
_atom_site_occupancy          
_atom_site_fract_x            
_atom_site_fract_y            
_atom_site_fract_z            
_atom_site_U_iso_or_equiv     
H1   H    1.0     -0.75352923         -0.35542034         0.60661592          0.0     
H2   H    1.0     -0.50992402         -0.49746939         0.60599222          0.0     
H3   H    1.0     -0.50991115         -0.21344004         0.60599683          0.0     
C4   C    1.0     -0.59045789         -0.35547239         0.590305            0.0     
O5   O    1.0     -0.08911            -0.35546            0.0                 0.0     
O6   O    1.0     -0.58911            -0.35546            0.0                 0.0     
O7   O    1.0     -0.33911            -0.04693            0.05551             0.0     
O8   O    1.0     -0.83911            -0.04693            0.05551             0.0     
O9   O    1.0     -0.33911            -0.66399            0.05551             0.0     
O10  O    1.0     -0.83911            -0.66399            0.05551             0.0     
O11  O    1.0     -0.08911            -0.35546            0.11102             0.0     
O12  O    1.0     -0.58911            -0.35546            0.11102             0.0     
O13  O    1.0     -0.58911            -0.85546            0.14496             0.0     
O14  O    1.0     -0.08911            -0.85546            0.14496             0.0     
O15  O    1.0     -0.33911            -0.16399            0.20047             0.0     
O16  O    1.0     -0.83911            -0.16399            0.20047             0.0     
O17  O    1.0     -0.33911            -0.54693            0.20047             0.0     
O18  O    1.0     -0.83911            -0.54693            0.20047             0.0     
O19  O    1.0     -0.08911            -0.85546            0.25598             0.0     
O20  O    1.0     -0.58911            -0.85546            0.25598             0.0     
O21  O    1.0     -0.08897603         -0.35545807         0.29034083          0.0     
O22  O    1.0     -0.5890108          -0.35542906         0.28957368          0.0     
O23  O    1.0     -0.33943739         -0.04685315         0.34637219          0.0     
O24  O    1.0     -0.83855862         -0.04683385         0.34635469          0.0     
O25  O    1.0     -0.33943335         -0.66407349         0.34634853          0.0     
O26  O    1.0     -0.83853382         -0.66408518         0.34632844          0.0     
O27  O    1.0     -1.08888445         -0.35565264         0.4005397           0.0     
O28  O    1.0     -0.58890216         -0.35549199         0.40053641          0.0     
O29  O    1.0     -1.08876977         -0.85552377         0.4364854           0.0     
O30  O    1.0     -0.58901056         -0.855499           0.43638647          0.0     
O31  O    1.0     -0.34101732         -0.16557537         0.49385655          0.0     
O32  O    1.0     -0.83691163         -0.16561456         0.49406191          0.0     
O33  O    1.0     -0.34104082         -0.54537213         0.49386067          0.0     
O34  O    1.0     -0.83689705         -0.54535703         0.49405466          0.0     
O35  O    1.0     -1.08903671         -0.85553659         0.54700921          0.0     
O36  O    1.0     -0.58866866         -0.85548719         0.54676122          0.0     
Ru37 Ru   1.0     -0.58944807         -0.35547843         0.49609503          0.0     
Ir38 Ir   1.0     -0.33911            -0.35546            0.05551             0.0     
Ir39 Ir   1.0     -0.83911            -0.35546            0.05551             0.0     
Ir40 Ir   1.0     -0.08911            -0.85546            0.05551             0.0     
Ir41 Ir   1.0     -0.58911            -0.85546            0.05551             0.0     
Ir42 Ir   1.0     -0.08911            -0.35546            0.20047             0.0     
Ir43 Ir   1.0     -0.58911            -0.35546            0.20047             0.0     
Ir44 Ir   1.0     -0.33911            -0.85546            0.20047             0.0     
Ir45 Ir   1.0     -0.83911            -0.85546            0.20047             0.0     
Ir46 Ir   1.0     -0.83627058         -0.35545712         0.34553854          0.0     
Ir47 Ir   1.0     -0.34166091         -0.35546024         0.34552831          0.0     
Ir48 Ir   1.0     -0.08897364         -0.85545344         0.3466802           0.0     
Ir49 Ir   1.0     -0.5889953          -0.85545736         0.34668923          0.0     
Ir50 Ir   1.0     -1.089057           -0.35547387         0.48911737          0.0     
Ir51 Ir   1.0     -0.33865738         -0.85546686         0.49317576          0.0     
Ir52 Ir   1.0     -0.83901788         -0.85549058         0.49330062          0.0     
