data_HCOIrGe
_audit_creation_method        'pos2cif.py'        
_cell_length_a                6.36215693          
_cell_length_b                6.384482994809508   
_cell_length_c                22.021598412435427  
_cell_angle_alpha             90.0                
_cell_angle_beta              90.0                
_cell_angle_gamma             90.0                
_symmetry_space_group_H-M     'P1'                
_symmetry_Int_Tables_number   '1'                 
_symmetry_cell_setting        'triclinic'         
loop_                         
_symmetry_equiv_pos_as_xyz    
x,y,z                         

loop_                         
_atom_site_label              
_atom_site_type_symbol        
_atom_site_occupancy          
_atom_site_fract_x            
_atom_site_fract_y            
_atom_site_fract_z            
_atom_site_U_iso_or_equiv     
H1   H    1.0     -0.42527311         -0.35541458         0.60234845          0.0     
H2   H    1.0     -0.66941691         -0.49775082         0.60169558          0.0     
H3   H    1.0     -0.66940036         -0.21301568         0.60169634          0.0     
C4   C    1.0     -0.58869653         -0.35538941         0.58680286          0.0     
O5   O    1.0     -0.08911189         -0.35545641         0.0                 0.0     
O6   O    1.0     -0.58911189         -0.35545641         0.0                 0.0     
O7   O    1.0     -0.33911189         -0.04692641         0.05551082          0.0     
O8   O    1.0     -0.83911189         -0.04692641         0.05551082          0.0     
O9   O    1.0     -0.33911189         -0.66398641         0.05551082          0.0     
O10  O    1.0     -0.83911189         -0.66398641         0.05551082          0.0     
O11  O    1.0     -0.08911189         -0.35545641         0.11102164          0.0     
O12  O    1.0     -0.58911189         -0.35545641         0.11102164          0.0     
O13  O    1.0     -0.08911189         -0.85545641         0.14495957          0.0     
O14  O    1.0     -0.58911189         -0.85545641         0.14495957          0.0     
O15  O    1.0     -0.33911189         -0.16398641         0.20047039          0.0     
O16  O    1.0     -0.83911189         -0.16398641         0.20047039          0.0     
O17  O    1.0     -0.33911189         -0.54692641         0.20047039          0.0     
O18  O    1.0     -0.83911189         -0.54692641         0.20047039          0.0     
O19  O    1.0     -0.08911189         -0.85545641         0.25598121          0.0     
O20  O    1.0     -0.58911189         -0.85545641         0.25598121          0.0     
O21  O    1.0     -0.08927687         -0.35541413         0.28991972          0.0     
O22  O    1.0     -0.58933427         -0.35543605         0.2904137           0.0     
O23  O    1.0     -0.33995517         -0.0471927          0.34615832          0.0     
O24  O    1.0     -0.83873518         -0.04718094         0.34617291          0.0     
O25  O    1.0     -0.33995929         -0.66373059         0.34613131          0.0     
O26  O    1.0     -0.8386906          -0.66374069         0.34613735          0.0     
O27  O    1.0     -1.08947586         -0.35571517         0.39921812          0.0     
O28  O    1.0     -0.58932999         -0.35553523         0.40472116          0.0     
O29  O    1.0     -1.08947674         -0.85546458         0.43549014          0.0     
O30  O    1.0     -0.58932467         -0.8554496          0.43541088          0.0     
O31  O    1.0     -0.3384076          -0.16394882         0.48977336          0.0     
O32  O    1.0     -0.84026015         -0.16415108         0.48983444          0.0     
O33  O    1.0     -0.33838183         -0.54691809         0.48978224          0.0     
O34  O    1.0     -0.84030229         -0.54672194         0.4898482           0.0     
O35  O    1.0     -1.08938222         -0.85550178         0.54554964          0.0     
O36  O    1.0     -0.58954259         -0.85547372         0.5451666           0.0     
Ir37 Ir   1.0     -0.33911189         -0.35545641         0.05551082          0.0     
Ir38 Ir   1.0     -0.83911189         -0.35545641         0.05551082          0.0     
Ir39 Ir   1.0     -0.08911189         -0.85545641         0.05551082          0.0     
Ir40 Ir   1.0     -0.58911189         -0.85545641         0.05551082          0.0     
Ir41 Ir   1.0     -0.08911189         -0.35545641         0.20047039          0.0     
Ir42 Ir   1.0     -0.58911189         -0.35545641         0.20047039          0.0     
Ir43 Ir   1.0     -0.33911189         -0.85545641         0.20047039          0.0     
Ir44 Ir   1.0     -0.83911189         -0.85545641         0.20047039          0.0     
Ir45 Ir   1.0     -0.34205497         -0.35546245         0.34605361          0.0     
Ir46 Ir   1.0     -0.83665567         -0.35545745         0.34606223          0.0     
Ir47 Ir   1.0     -0.08933025         -0.85545491         0.34620823          0.0     
Ir48 Ir   1.0     -0.58930569         -0.8554556          0.34630232          0.0     
Ir49 Ir   1.0     -1.08911119         -0.35542847         0.48580216          0.0     
Ir50 Ir   1.0     -0.33902689         -0.85544013         0.49160466          0.0     
Ir51 Ir   1.0     -0.83975244         -0.85543869         0.49153535          0.0     
Ge52 Ge   1.0     -0.58865885         -0.35542437         0.49624223          0.0     
