data_HCOIrMo
_audit_creation_method        'pos2cif.py'        
_cell_length_a                6.36215693          
_cell_length_b                6.384482994809508   
_cell_length_c                22.021598412435427  
_cell_angle_alpha             90.0                
_cell_angle_beta              90.0                
_cell_angle_gamma             90.0                
_symmetry_space_group_H-M     'P1'                
_symmetry_Int_Tables_number   '1'                 
_symmetry_cell_setting        'triclinic'         
loop_                         
_symmetry_equiv_pos_as_xyz    
x,y,z                         

loop_                         
_atom_site_label              
_atom_site_type_symbol        
_atom_site_occupancy          
_atom_site_fract_x            
_atom_site_fract_y            
_atom_site_fract_z            
_atom_site_U_iso_or_equiv     
H1   H    1.0     -0.42579694         -0.35541858         0.6131084           0.0     
H2   H    1.0     -0.66842722         -0.4967442          0.61202327          0.0     
H3   H    1.0     -0.66845588         -0.21404705         0.61204615          0.0     
C4   C    1.0     -0.58753356         -0.3554052          0.59566958          0.0     
O5   O    1.0     -0.08911189         -0.35545641         0.0                 0.0     
O6   O    1.0     -0.58911189         -0.35545641         0.0                 0.0     
O7   O    1.0     -0.33911189         -0.04692641         0.05551082          0.0     
O8   O    1.0     -0.83911189         -0.04692641         0.05551082          0.0     
O9   O    1.0     -0.33911189         -0.66398641         0.05551082          0.0     
O10  O    1.0     -0.83911189         -0.66398641         0.05551082          0.0     
O11  O    1.0     -0.08911189         -0.35545641         0.11102164          0.0     
O12  O    1.0     -0.58911189         -0.35545641         0.11102164          0.0     
O13  O    1.0     -0.08911189         -0.85545641         0.14495957          0.0     
O14  O    1.0     -0.58911189         -0.85545641         0.14495957          0.0     
O15  O    1.0     -0.33911189         -0.16398641         0.20047039          0.0     
O16  O    1.0     -0.83911189         -0.16398641         0.20047039          0.0     
O17  O    1.0     -0.33911189         -0.54692641         0.20047039          0.0     
O18  O    1.0     -0.83911189         -0.54692641         0.20047039          0.0     
O19  O    1.0     -0.08911189         -0.85545641         0.25598121          0.0     
O20  O    1.0     -0.58911189         -0.85545641         0.25598121          0.0     
O21  O    1.0     -0.08929527         -0.35542187         0.2899401           0.0     
O22  O    1.0     -0.58933536         -0.35541577         0.28952721          0.0     
O23  O    1.0     -0.33991459         -0.04687531         0.34585688          0.0     
O24  O    1.0     -0.83876537         -0.0468763          0.34588101          0.0     
O25  O    1.0     -0.33990462         -0.664035           0.3458287           0.0     
O26  O    1.0     -0.8387421          -0.6640317          0.34585426          0.0     
O27  O    1.0     -1.08955817         -0.3557599          0.39980423          0.0     
O28  O    1.0     -0.58932131         -0.35550508         0.4014154           0.0     
O29  O    1.0     -1.08953733         -0.85545132         0.43545104          0.0     
O30  O    1.0     -0.58931704         -0.85550729         0.43535394          0.0     
O31  O    1.0     -0.3438188          -0.16499666         0.49343351          0.0     
O32  O    1.0     -0.83513112         -0.16511082         0.4932314           0.0     
O33  O    1.0     -0.34381311         -0.54602973         0.49347695          0.0     
O34  O    1.0     -0.83515075         -0.54590686         0.49326423          0.0     
O35  O    1.0     -1.08931591         -0.85557782         0.5456015           0.0     
O36  O    1.0     -0.5896172          -0.85555954         0.54537398          0.0     
Ir37 Ir   1.0     -0.33911189         -0.35545641         0.05551082          0.0     
Ir38 Ir   1.0     -0.83911189         -0.35545641         0.05551082          0.0     
Ir39 Ir   1.0     -0.08911189         -0.85545641         0.05551082          0.0     
Ir40 Ir   1.0     -0.58911189         -0.85545641         0.05551082          0.0     
Ir41 Ir   1.0     -0.08911189         -0.35545641         0.20047039          0.0     
Ir42 Ir   1.0     -0.58911189         -0.35545641         0.20047039          0.0     
Ir43 Ir   1.0     -0.33911189         -0.85545641         0.20047039          0.0     
Ir44 Ir   1.0     -0.83911189         -0.85545641         0.20047039          0.0     
Ir45 Ir   1.0     -0.34195221         -0.35545182         0.34523571          0.0     
Ir46 Ir   1.0     -0.83675766         -0.35544847         0.34524449          0.0     
Ir47 Ir   1.0     -0.08932039         -0.85544499         0.34618224          0.0     
Ir48 Ir   1.0     -0.58929778         -0.85545448         0.34608265          0.0     
Ir49 Ir   1.0     -1.08928166         -0.35549537         0.48782855          0.0     
Ir50 Ir   1.0     -0.338503           -0.85550811         0.4917152           0.0     
Ir51 Ir   1.0     -0.84043184         -0.85549756         0.4916146           0.0     
Mo52 Mo   1.0     -0.58889186         -0.35551196         0.49918354          0.0     
