data_HCORhIr
_audit_creation_method        'pos2cif.py'        
_cell_length_a                6.36215693          
_cell_length_b                6.38448299          
_cell_length_c                22.02159841         
_cell_angle_alpha             90.0                
_cell_angle_beta              90.0                
_cell_angle_gamma             90.0                
_symmetry_space_group_H-M     'P1'                
_symmetry_Int_Tables_number   '1'                 
_symmetry_cell_setting        'triclinic'         
loop_                         
_symmetry_equiv_pos_as_xyz    
x,y,z                         

loop_                         
_atom_site_label              
_atom_site_type_symbol        
_atom_site_occupancy          
_atom_site_fract_x            
_atom_site_fract_y            
_atom_site_fract_z            
_atom_site_U_iso_or_equiv     
H1   H    1.0     -0.75387203         -0.35541363         0.60533859          0.0     
H2   H    1.0     -0.50917739         -0.4983463          0.60504928          0.0     
H3   H    1.0     -0.50919312         -0.21256777         0.60504488          0.0     
C4   C    1.0     -0.58960406         -0.35542853         0.59020546          0.0     
O5   O    1.0     -0.08911            -0.35546            0.0                 0.0     
O6   O    1.0     -0.58911            -0.35546            0.0                 0.0     
O7   O    1.0     -0.33911            -0.04693            0.05551             0.0     
O8   O    1.0     -0.83911            -0.04693            0.05551             0.0     
O9   O    1.0     -0.33911            -0.66399            0.05551             0.0     
O10  O    1.0     -0.83911            -0.66399            0.05551             0.0     
O11  O    1.0     -0.08911            -0.35546            0.11102             0.0     
O12  O    1.0     -0.58911            -0.35546            0.11102             0.0     
O13  O    1.0     -0.58911            -0.85546            0.14496             0.0     
O14  O    1.0     -0.08911            -0.85546            0.14496             0.0     
O15  O    1.0     -0.33911            -0.16399            0.20047             0.0     
O16  O    1.0     -0.83911            -0.16399            0.20047             0.0     
O17  O    1.0     -0.33911            -0.54693            0.20047             0.0     
O18  O    1.0     -0.83911            -0.54693            0.20047             0.0     
O19  O    1.0     -0.08911            -0.85546            0.25598             0.0     
O20  O    1.0     -0.58911            -0.85546            0.25598             0.0     
O21  O    1.0     -0.08903334         -0.3554442          0.29031065          0.0     
O22  O    1.0     -0.58905895         -0.35543278         0.28941593          0.0     
O23  O    1.0     -0.33941027         -0.04697965         0.34654628          0.0     
O24  O    1.0     -0.8387104          -0.04697747         0.34654772          0.0     
O25  O    1.0     -0.33942989         -0.6639614          0.34651812          0.0     
O26  O    1.0     -0.83870923         -0.66396231         0.34651258          0.0     
O27  O    1.0     -1.08901391         -0.35569821         0.4002491           0.0     
O28  O    1.0     -0.58894703         -0.35554162         0.39958489          0.0     
O29  O    1.0     -1.08889329         -0.85548002         0.43715588          0.0     
O30  O    1.0     -0.58905425         -0.85548598         0.43710925          0.0     
O31  O    1.0     -0.3370442          -0.16364671         0.49496887          0.0     
O32  O    1.0     -0.84086845         -0.16366224         0.49513639          0.0     
O33  O    1.0     -0.337066           -0.54724338         0.49496356          0.0     
O34  O    1.0     -0.84086226         -0.54721984         0.49512819          0.0     
O35  O    1.0     -1.08904699         -0.85552154         0.5480949           0.0     
O36  O    1.0     -0.58881078         -0.85549186         0.54778638          0.0     
Rh37 Rh   1.0     -0.58926326         -0.35547675         0.49693907          0.0     
Ir38 Ir   1.0     -0.33911            -0.35546            0.05551             0.0     
Ir39 Ir   1.0     -0.83911            -0.35546            0.05551             0.0     
Ir40 Ir   1.0     -0.08911            -0.85546            0.05551             0.0     
Ir41 Ir   1.0     -0.58911            -0.85546            0.05551             0.0     
Ir42 Ir   1.0     -0.08911            -0.35546            0.20047             0.0     
Ir43 Ir   1.0     -0.58911            -0.35546            0.20047             0.0     
Ir44 Ir   1.0     -0.33911            -0.85546            0.20047             0.0     
Ir45 Ir   1.0     -0.83911            -0.85546            0.20047             0.0     
Ir46 Ir   1.0     -0.83608205         -0.35546501         0.34535903          0.0     
Ir47 Ir   1.0     -0.34197793         -0.35546831         0.34534731          0.0     
Ir48 Ir   1.0     -0.08904281         -0.85545763         0.34701139          0.0     
Ir49 Ir   1.0     -0.58906374         -0.85546376         0.34706215          0.0     
Ir50 Ir   1.0     -1.08896776         -0.3554141          0.48847691          0.0     
Ir51 Ir   1.0     -0.33892201         -0.85544045         0.49411742          0.0     
Ir52 Ir   1.0     -0.83890569         -0.85543978         0.49420135          0.0     
