data_HCOOsIr
_audit_creation_method        'pos2cif.py'        
_cell_length_a                6.36215693          
_cell_length_b                6.38448299          
_cell_length_c                22.02159841         
_cell_angle_alpha             90.0                
_cell_angle_beta              90.0                
_cell_angle_gamma             90.0                
_symmetry_space_group_H-M     'P1'                
_symmetry_Int_Tables_number   '1'                 
_symmetry_cell_setting        'triclinic'         
loop_                         
_symmetry_equiv_pos_as_xyz    
x,y,z                         

loop_                         
_atom_site_label              
_atom_site_type_symbol        
_atom_site_occupancy          
_atom_site_fract_x            
_atom_site_fract_y            
_atom_site_fract_z            
_atom_site_U_iso_or_equiv     
H1   H    1.0     -0.75177675         -0.35545701         0.60877437          0.0     
H2   H    1.0     -0.5096631          -0.49676999         0.6082914           0.0     
H3   H    1.0     -0.50964679         -0.21414607         0.60829392          0.0     
C4   C    1.0     -0.58951728         -0.35545654         0.59150436          0.0     
O5   O    1.0     -0.08911            -0.35546            0.0                 0.0     
O6   O    1.0     -0.58911            -0.35546            0.0                 0.0     
O7   O    1.0     -0.33911            -0.04693            0.05551             0.0     
O8   O    1.0     -0.83911            -0.04693            0.05551             0.0     
O9   O    1.0     -0.33911            -0.66399            0.05551             0.0     
O10  O    1.0     -0.83911            -0.66399            0.05551             0.0     
O11  O    1.0     -0.08911            -0.35546            0.11102             0.0     
O12  O    1.0     -0.58911            -0.35546            0.11102             0.0     
O13  O    1.0     -0.58911            -0.85546            0.14496             0.0     
O14  O    1.0     -0.08911            -0.85546            0.14496             0.0     
O15  O    1.0     -0.33911            -0.16399            0.20047             0.0     
O16  O    1.0     -0.83911            -0.16399            0.20047             0.0     
O17  O    1.0     -0.33911            -0.54693            0.20047             0.0     
O18  O    1.0     -0.83911            -0.54693            0.20047             0.0     
O19  O    1.0     -0.08911            -0.85546            0.25598             0.0     
O20  O    1.0     -0.58911            -0.85546            0.25598             0.0     
O21  O    1.0     -0.08905507         -0.35543601         0.29033494          0.0     
O22  O    1.0     -0.58908208         -0.35541742         0.28965933          0.0     
O23  O    1.0     -0.33956346         -0.04680245         0.34615109          0.0     
O24  O    1.0     -0.83864485         -0.04678033         0.34613337          0.0     
O25  O    1.0     -0.33955436         -0.66413452         0.34611699          0.0     
O26  O    1.0     -0.83860878         -0.66414741         0.3461064           0.0     
O27  O    1.0     -1.08891283         -0.35575317         0.40085184          0.0     
O28  O    1.0     -0.5890386          -0.35548251         0.40164105          0.0     
O29  O    1.0     -1.08886304         -0.85550554         0.43574652          0.0     
O30  O    1.0     -0.58917574         -0.85548112         0.43581156          0.0     
O31  O    1.0     -0.3428319          -0.16671947         0.49388576          0.0     
O32  O    1.0     -0.83490897         -0.1667322          0.49420007          0.0     
O33  O    1.0     -0.34286421         -0.54429969         0.49390201          0.0     
O34  O    1.0     -0.8349192          -0.54428846         0.4942014           0.0     
O35  O    1.0     -1.0892117          -0.85556833         0.54614255          0.0     
O36  O    1.0     -0.58880926         -0.85553514         0.54599134          0.0     
Os37 Os   1.0     -0.58910557         -0.35548603         0.4968343           0.0     
Ir38 Ir   1.0     -0.33911            -0.35546            0.05551             0.0     
Ir39 Ir   1.0     -0.83911            -0.35546            0.05551             0.0     
Ir40 Ir   1.0     -0.08911            -0.85546            0.05551             0.0     
Ir41 Ir   1.0     -0.58911            -0.85546            0.05551             0.0     
Ir42 Ir   1.0     -0.08911            -0.35546            0.20047             0.0     
Ir43 Ir   1.0     -0.58911            -0.35546            0.20047             0.0     
Ir44 Ir   1.0     -0.33911            -0.85546            0.20047             0.0     
Ir45 Ir   1.0     -0.83911            -0.85546            0.20047             0.0     
Ir46 Ir   1.0     -0.83687499         -0.35545848         0.34574032          0.0     
Ir47 Ir   1.0     -0.34123511         -0.35546193         0.34573554          0.0     
Ir48 Ir   1.0     -0.08907225         -0.85546077         0.34625752          0.0     
Ir49 Ir   1.0     -0.58910328         -0.85546347         0.34632202          0.0     
Ir50 Ir   1.0     -1.08889562         -0.35549434         0.48991615          0.0     
Ir51 Ir   1.0     -0.33890746         -0.85549657         0.49231643          0.0     
Ir52 Ir   1.0     -0.8390134          -0.85549296         0.49247075          0.0     
