data_HCOIrV
_audit_creation_method        'pos2cif.py'        
_cell_length_a                6.36215693          
_cell_length_b                6.384482994809508   
_cell_length_c                22.021598412435427  
_cell_angle_alpha             90.0                
_cell_angle_beta              90.0                
_cell_angle_gamma             90.0                
_symmetry_space_group_H-M     'P1'                
_symmetry_Int_Tables_number   '1'                 
_symmetry_cell_setting        'triclinic'         
loop_                         
_symmetry_equiv_pos_as_xyz    
x,y,z                         

loop_                         
_atom_site_label              
_atom_site_type_symbol        
_atom_site_occupancy          
_atom_site_fract_x            
_atom_site_fract_y            
_atom_site_fract_z            
_atom_site_U_iso_or_equiv     
H1   H    1.0     -0.42483056         -0.35549516         0.60646019          0.0     
H2   H    1.0     -0.66929577         -0.49744513         0.6054145           0.0     
H3   H    1.0     -0.66925893         -0.21342604         0.60542372          0.0     
C4   C    1.0     -0.58768101         -0.35541336         0.5900404           0.0     
O5   O    1.0     -0.08911189         -0.35545641         0.0                 0.0     
O6   O    1.0     -0.58911189         -0.35545641         0.0                 0.0     
O7   O    1.0     -0.33911189         -0.04692641         0.05551082          0.0     
O8   O    1.0     -0.83911189         -0.04692641         0.05551082          0.0     
O9   O    1.0     -0.33911189         -0.66398641         0.05551082          0.0     
O10  O    1.0     -0.83911189         -0.66398641         0.05551082          0.0     
O11  O    1.0     -0.08911189         -0.35545641         0.11102164          0.0     
O12  O    1.0     -0.58911189         -0.35545641         0.11102164          0.0     
O13  O    1.0     -0.08911189         -0.85545641         0.14495957          0.0     
O14  O    1.0     -0.58911189         -0.85545641         0.14495957          0.0     
O15  O    1.0     -0.33911189         -0.16398641         0.20047039          0.0     
O16  O    1.0     -0.83911189         -0.16398641         0.20047039          0.0     
O17  O    1.0     -0.33911189         -0.54692641         0.20047039          0.0     
O18  O    1.0     -0.83911189         -0.54692641         0.20047039          0.0     
O19  O    1.0     -0.08911189         -0.85545641         0.25598121          0.0     
O20  O    1.0     -0.58911189         -0.85545641         0.25598121          0.0     
O21  O    1.0     -0.08930115         -0.35543822         0.29001376          0.0     
O22  O    1.0     -0.58933627         -0.35544392         0.28976616          0.0     
O23  O    1.0     -0.33986757         -0.04704418         0.34607414          0.0     
O24  O    1.0     -0.83874031         -0.04704629         0.34607542          0.0     
O25  O    1.0     -0.33986062         -0.66385988         0.34605956          0.0     
O26  O    1.0     -0.83871483         -0.66385675         0.34606279          0.0     
O27  O    1.0     -1.08956851         -0.35558784         0.39995493          0.0     
O28  O    1.0     -0.58941204         -0.35546339         0.40189665          0.0     
O29  O    1.0     -1.08952637         -0.8554743          0.43589895          0.0     
O30  O    1.0     -0.58923942         -0.85549889         0.43556269          0.0     
O31  O    1.0     -0.34749263         -0.16740639         0.49269005          0.0     
O32  O    1.0     -0.83133882         -0.16752487         0.4924034           0.0     
O33  O    1.0     -0.34750627         -0.54357578         0.4926945           0.0     
O34  O    1.0     -0.83130693         -0.54343182         0.49240602          0.0     
O35  O    1.0     -1.08931073         -0.85553412         0.54549514          0.0     
O36  O    1.0     -0.58965606         -0.85550704         0.54553854          0.0     
Ir37 Ir   1.0     -0.33911189         -0.35545641         0.05551082          0.0     
Ir38 Ir   1.0     -0.83911189         -0.35545641         0.05551082          0.0     
Ir39 Ir   1.0     -0.08911189         -0.85545641         0.05551082          0.0     
Ir40 Ir   1.0     -0.58911189         -0.85545641         0.05551082          0.0     
Ir41 Ir   1.0     -0.08911189         -0.35545641         0.20047039          0.0     
Ir42 Ir   1.0     -0.58911189         -0.35545641         0.20047039          0.0     
Ir43 Ir   1.0     -0.33911189         -0.85545641         0.20047039          0.0     
Ir44 Ir   1.0     -0.83911189         -0.85545641         0.20047039          0.0     
Ir45 Ir   1.0     -0.34228801         -0.35544887         0.34556691          0.0     
Ir46 Ir   1.0     -0.83643522         -0.35544676         0.34556691          0.0     
Ir47 Ir   1.0     -0.08928069         -0.85544503         0.3464762           0.0     
Ir48 Ir   1.0     -0.58925311         -0.8554517          0.34629582          0.0     
Ir49 Ir   1.0     -1.08895194         -0.35548031         0.48743562          0.0     
Ir50 Ir   1.0     -0.3398623          -0.85548759         0.49215008          0.0     
Ir51 Ir   1.0     -0.83900174         -0.85547961         0.49201813          0.0     
V52  V    1.0     -0.58795501         -0.35547918         0.49511302          0.0     
