data_HCOIrTi
_audit_creation_method        'pos2cif.py'        
_cell_length_a                6.36215693          
_cell_length_b                6.384482994809508   
_cell_length_c                22.021598412435427  
_cell_angle_alpha             90.0                
_cell_angle_beta              90.0                
_cell_angle_gamma             90.0                
_symmetry_space_group_H-M     'P1'                
_symmetry_Int_Tables_number   '1'                 
_symmetry_cell_setting        'triclinic'         
loop_                         
_symmetry_equiv_pos_as_xyz    
x,y,z                         

loop_                         
_atom_site_label              
_atom_site_type_symbol        
_atom_site_occupancy          
_atom_site_fract_x            
_atom_site_fract_y            
_atom_site_fract_z            
_atom_site_U_iso_or_equiv     
H1   H    1.0     -0.42502196         -0.35556938         0.60960296          0.0     
H2   H    1.0     -0.66959885         -0.49770328         0.60870091          0.0     
H3   H    1.0     -0.66956342         -0.21337197         0.60869963          0.0     
C4   C    1.0     -0.58806931         -0.35553324         0.5935563           0.0     
O5   O    1.0     -0.08911189         -0.35545641         0.0                 0.0     
O6   O    1.0     -0.58911189         -0.35545641         0.0                 0.0     
O7   O    1.0     -0.33911189         -0.04692641         0.05551082          0.0     
O8   O    1.0     -0.83911189         -0.04692641         0.05551082          0.0     
O9   O    1.0     -0.33911189         -0.66398641         0.05551082          0.0     
O10  O    1.0     -0.83911189         -0.66398641         0.05551082          0.0     
O11  O    1.0     -0.08911189         -0.35545641         0.11102164          0.0     
O12  O    1.0     -0.58911189         -0.35545641         0.11102164          0.0     
O13  O    1.0     -0.08911189         -0.85545641         0.14495957          0.0     
O14  O    1.0     -0.58911189         -0.85545641         0.14495957          0.0     
O15  O    1.0     -0.33911189         -0.16398641         0.20047039          0.0     
O16  O    1.0     -0.83911189         -0.16398641         0.20047039          0.0     
O17  O    1.0     -0.33911189         -0.54692641         0.20047039          0.0     
O18  O    1.0     -0.83911189         -0.54692641         0.20047039          0.0     
O19  O    1.0     -0.08911189         -0.85545641         0.25598121          0.0     
O20  O    1.0     -0.58911189         -0.85545641         0.25598121          0.0     
O21  O    1.0     -0.08923759         -0.35543296         0.28987759          0.0     
O22  O    1.0     -0.58928359         -0.3554452          0.28969908          0.0     
O23  O    1.0     -0.33980132         -0.04711064         0.34617046          0.0     
O24  O    1.0     -0.83867798         -0.04711345         0.34617928          0.0     
O25  O    1.0     -0.33979446         -0.66380052         0.34614811          0.0     
O26  O    1.0     -0.8386582          -0.66379764         0.34615816          0.0     
O27  O    1.0     -1.0895082          -0.35560422         0.3997053           0.0     
O28  O    1.0     -0.58922536         -0.35551575         0.40171595          0.0     
O29  O    1.0     -1.08942311         -0.85547281         0.43601254          0.0     
O30  O    1.0     -0.5891549          -0.85547189         0.43583128          0.0     
O31  O    1.0     -0.34178555         -0.1641737          0.49287536          0.0     
O32  O    1.0     -0.83717267         -0.16442871         0.49263155          0.0     
O33  O    1.0     -0.34178654         -0.54676279         0.49290401          0.0     
O34  O    1.0     -0.83716226         -0.54652563         0.49264545          0.0     
O35  O    1.0     -1.0892339          -0.85555167         0.54594788          0.0     
O36  O    1.0     -0.58949068         -0.8555274          0.54575593          0.0     
Ir37 Ir   1.0     -0.33911189         -0.35545641         0.05551082          0.0     
Ir38 Ir   1.0     -0.83911189         -0.35545641         0.05551082          0.0     
Ir39 Ir   1.0     -0.08911189         -0.85545641         0.05551082          0.0     
Ir40 Ir   1.0     -0.58911189         -0.85545641         0.05551082          0.0     
Ir41 Ir   1.0     -0.08911189         -0.35545641         0.20047039          0.0     
Ir42 Ir   1.0     -0.58911189         -0.35545641         0.20047039          0.0     
Ir43 Ir   1.0     -0.33911189         -0.85545641         0.20047039          0.0     
Ir44 Ir   1.0     -0.83911189         -0.85545641         0.20047039          0.0     
Ir45 Ir   1.0     -0.34232081         -0.35545872         0.34535284          0.0     
Ir46 Ir   1.0     -0.83624871         -0.35545675         0.34536021          0.0     
Ir47 Ir   1.0     -0.08922791         -0.85544817         0.34655225          0.0     
Ir48 Ir   1.0     -0.58919807         -0.85545085         0.3464656           0.0     
Ir49 Ir   1.0     -1.08928921         -0.35546286         0.48668521          0.0     
Ir50 Ir   1.0     -0.33852067         -0.85546139         0.49240367          0.0     
Ir51 Ir   1.0     -0.84009536         -0.85547009         0.49230187          0.0     
Ti52 Ti   1.0     -0.58867598         -0.35545792         0.49671725          0.0     
