data_HCORuRh
_audit_creation_method        'pos2cif.py'        
_cell_length_a                6.22358237          
_cell_length_b                6.35872035119657    
_cell_length_c                22.00806185720124   
_cell_angle_alpha             90.0                
_cell_angle_beta              90.0                
_cell_angle_gamma             90.0                
_symmetry_space_group_H-M     'P1'                
_symmetry_Int_Tables_number   '1'                 
_symmetry_cell_setting        'triclinic'         
loop_                         
_symmetry_equiv_pos_as_xyz    
x,y,z                         

loop_                         
_atom_site_label              
_atom_site_type_symbol        
_atom_site_occupancy          
_atom_site_fract_x            
_atom_site_fract_y            
_atom_site_fract_z            
_atom_site_U_iso_or_equiv     
H1   H    1.0     0.75694186          0.77367192          0.60459979          0.0     
H2   H    1.0     0.50672529          0.63078199          0.60420832          0.0     
H3   H    1.0     0.50672742          0.91648921          0.60420155          0.0     
C4   C    1.0     0.58944879          0.7737094           0.58914926          0.0     
O5   O    1.0     0.33911189          0.07924319          0.05611538          0.0     
O6   O    1.0     0.83911189          0.07924319          0.05611538          0.0     
O7   O    1.0     0.33911189          0.46768319          0.05611538          0.0     
O8   O    1.0     0.83911189          0.46768319          0.05611538          0.0     
O9   O    1.0     0.08911189          0.77346319          0.11223075          0.0     
O10  O    1.0     0.58911189          0.77346319          0.11223075          0.0     
O11  O    1.0     0.08911189          0.27346319          0.14446343          0.0     
O12  O    1.0     0.58911189          0.27346319          0.14446343          0.0     
O13  O    1.0     0.33911189          0.57924319          0.20057881          0.0     
O14  O    1.0     0.83911189          0.57924319          0.20057881          0.0     
O15  O    1.0     0.33911189          0.96768319          0.20057881          0.0     
O16  O    1.0     0.83911189          0.96768319          0.20057881          0.0     
O17  O    1.0     0.08911189          0.27346319          0.25669419          0.0     
O18  O    1.0     0.58911189          0.27346319          0.25669419          0.0     
O19  O    1.0     0.08886278          0.77348925          0.28840557          0.0     
O20  O    1.0     0.58883819          0.77343304          0.28824215          0.0     
O21  O    1.0     0.33901925          0.07980664          0.34586225          0.0     
O22  O    1.0     0.83874982          0.07974064          0.34582851          0.0     
O23  O    1.0     0.3390129           0.4669356           0.34585314          0.0     
O24  O    1.0     0.83879871          0.46701091          0.34582505          0.0     
O25  O    1.0     0.08862823          0.77351082          0.39926654          0.0     
O26  O    1.0     0.58870983          0.77339179          0.39863633          0.0     
O27  O    1.0     0.08863678          0.27355131          0.43504904          0.0     
O28  O    1.0     0.58892288          0.27354519          0.43507701          0.0     
O29  O    1.0     0.33367171          0.58257734          0.49366325          0.0     
O30  O    1.0     0.84361951          0.58267483          0.49383387          0.0     
O31  O    1.0     0.33369118          0.9646864           0.49365887          0.0     
O32  O    1.0     0.84360726          0.96466027          0.4938304           0.0     
O33  O    1.0     0.08882449          0.27375772          0.54539221          0.0     
O34  O    1.0     0.58869448          0.27373553          0.54428271          0.0     
O35  O    1.0     0.08911189          0.77346319          0.0                 0.0     
O36  O    1.0     0.58911189          0.77346319          0.0                 0.0     
Ru37 Ru   1.0     0.08911189          0.27346319          0.05611538          0.0     
Ru38 Ru   1.0     0.58911189          0.27346319          0.05611538          0.0     
Ru39 Ru   1.0     0.33911189          0.77346319          0.05611538          0.0     
Ru40 Ru   1.0     0.83911189          0.77346319          0.05611538          0.0     
Ru41 Ru   1.0     0.33911189          0.27346319          0.20057881          0.0     
Ru42 Ru   1.0     0.83911189          0.27346319          0.20057881          0.0     
Ru43 Ru   1.0     0.08911189          0.77346319          0.20057881          0.0     
Ru44 Ru   1.0     0.58911189          0.77346319          0.20057881          0.0     
Ru45 Ru   1.0     0.08887498          0.27337369          0.34632457          0.0     
Ru46 Ru   1.0     0.5889443           0.27338859          0.34672068          0.0     
Ru47 Ru   1.0     0.34220051          0.77338231          0.34459823          0.0     
Ru48 Ru   1.0     0.83533976          0.77340241          0.34459755          0.0     
Ru49 Ru   1.0     0.33811207          0.2736363           0.49459337          0.0     
Ru50 Ru   1.0     0.8393872           0.27367171          0.49475121          0.0     
Ru51 Ru   1.0     0.08869052          0.77364571          0.48442402          0.0     
Rh52 Rh   1.0     0.58888336          0.77364415          0.49556265          0.0     
