data_HCOVMo
_audit_creation_method        'pos2cif.py'        
_cell_length_a                5.64711014          
_cell_length_b                6.450147843790429   
_cell_length_c                22.267278180501698  
_cell_angle_alpha             90.0                
_cell_angle_beta              90.0                
_cell_angle_gamma             90.0                
_symmetry_space_group_H-M     'P1'                
_symmetry_Int_Tables_number   '1'                 
_symmetry_cell_setting        'triclinic'         
loop_                         
_symmetry_equiv_pos_as_xyz    
x,y,z                         

loop_                         
_atom_site_label              
_atom_site_type_symbol        
_atom_site_occupancy          
_atom_site_fract_x            
_atom_site_fract_y            
_atom_site_fract_z            
_atom_site_U_iso_or_equiv     
H1   H    1.0     0.60359327          0.55464878          0.61406185          0.0     
H2   H    1.0     0.33011279          0.41534446          0.6134601           0.0     
H3   H    1.0     0.33008261          0.69391274          0.61347137          0.0     
C4   C    1.0     0.42130495          0.55458314          0.59689867          0.0     
O5   O    1.0     0.41591489          0.55480134          0.0                 0.0     
O6   O    1.0     0.91591489          0.55480134          0.0                 0.0     
O7   O    1.0     0.16591489          0.25573134          0.05820326          0.0     
O8   O    1.0     0.66591489          0.25573134          0.05820326          0.0     
O9   O    1.0     0.16591489          0.85387134          0.05820326          0.0     
O10  O    1.0     0.66591489          0.85387134          0.05820326          0.0     
O11  O    1.0     0.41591489          0.55480134          0.11640652          0.0     
O12  O    1.0     0.91591489          0.55480134          0.11640652          0.0     
O13  O    1.0     0.41591489          0.05480134          0.14483467          0.0     
O14  O    1.0     0.91591489          0.05480134          0.14483467          0.0     
O15  O    1.0     0.16591489          0.35387134          0.20303793          0.0     
O16  O    1.0     0.66591489          0.35387134          0.20303793          0.0     
O17  O    1.0     0.16591489          0.75573134          0.20303793          0.0     
O18  O    1.0     0.66591489          0.75573134          0.20303793          0.0     
O19  O    1.0     0.41591489          0.05480134          0.26124119          0.0     
O20  O    1.0     0.91591489          0.05480134          0.26124119          0.0     
O21  O    1.0     0.41561768          0.55477541          0.2873666           0.0     
O22  O    1.0     0.91613781          0.55470395          0.29004461          0.0     
O23  O    1.0     0.16669353          0.2562843           0.34832045          0.0     
O24  O    1.0     0.664628            0.25637561          0.34831568          0.0     
O25  O    1.0     0.16666081          0.85320598          0.34832481          0.0     
O26  O    1.0     0.66455766          0.85317804          0.34832139          0.0     
O27  O    1.0     0.4161917           0.55472995          0.40627268          0.0     
O28  O    1.0     -0.084428           0.55478221          0.40505596          0.0     
O29  O    1.0     0.41357752          0.05477826          0.43761745          0.0     
O30  O    1.0     -0.08399571         0.05475999          0.43700972          0.0     
O31  O    1.0     0.15201078          0.35656558          0.50055563          0.0     
O32  O    1.0     0.67777974          0.35403093          0.50022856          0.0     
O33  O    1.0     0.15205832          0.75300289          0.50055279          0.0     
O34  O    1.0     0.67775787          0.75551005          0.50022451          0.0     
O35  O    1.0     0.41546809          0.05472851          0.54955446          0.0     
O36  O    1.0     -0.08402344         0.05472587          0.55131837          0.0     
V37  V    1.0     0.41591489          0.05480134          0.05820326          0.0     
V38  V    1.0     0.91591489          0.05480134          0.05820326          0.0     
V39  V    1.0     0.16591489          0.55480134          0.05820326          0.0     
V40  V    1.0     0.66591489          0.55480134          0.05820326          0.0     
V41  V    1.0     0.16591489          0.05480134          0.20303793          0.0     
V42  V    1.0     0.66591489          0.05480134          0.20303793          0.0     
V43  V    1.0     0.41591489          0.55480134          0.20303793          0.0     
V44  V    1.0     0.91591489          0.55480134          0.20303793          0.0     
V45  V    1.0     0.41552141          0.0547898           0.35203025          0.0     
V46  V    1.0     0.91510908          0.05477933          0.35122467          0.0     
V47  V    1.0     0.17608469          0.55479486          0.34521878          0.0     
V48  V    1.0     0.65465882          0.55479476          0.34527619          0.0     
V49  V    1.0     0.16316224          0.05476371          0.49937346          0.0     
V50  V    1.0     0.66918968          0.05475767          0.50219039          0.0     
V51  V    1.0     -0.08749687         0.55478772          0.48272692          0.0     
Mo52 Mo   1.0     0.41604342          0.55474747          0.49991574          0.0     
