data_HCOVGe
_audit_creation_method        'pos2cif.py'        
_cell_length_a                5.64711014          
_cell_length_b                6.450147843790429   
_cell_length_c                22.267278180501698  
_cell_angle_alpha             90.0                
_cell_angle_beta              90.0                
_cell_angle_gamma             90.0                
_symmetry_space_group_H-M     'P1'                
_symmetry_Int_Tables_number   '1'                 
_symmetry_cell_setting        'triclinic'         
loop_                         
_symmetry_equiv_pos_as_xyz    
x,y,z                         

loop_                         
_atom_site_label              
_atom_site_type_symbol        
_atom_site_occupancy          
_atom_site_fract_x            
_atom_site_fract_y            
_atom_site_fract_z            
_atom_site_U_iso_or_equiv     
H1   H    1.0     0.60164056          0.55414809          0.62791643          0.0     
H2   H    1.0     0.32669548          0.41381994          0.62715818          0.0     
H3   H    1.0     0.32654402          0.69423769          0.62720362          0.0     
C4   C    1.0     0.41821035          0.55405776          0.61210503          0.0     
O5   O    1.0     0.41591489          0.55480134          0.0                 0.0     
O6   O    1.0     0.91591489          0.55480134          0.0                 0.0     
O7   O    1.0     0.16591489          0.25573134          0.05820326          0.0     
O8   O    1.0     0.66591489          0.25573134          0.05820326          0.0     
O9   O    1.0     0.16591489          0.85387134          0.05820326          0.0     
O10  O    1.0     0.66591489          0.85387134          0.05820326          0.0     
O11  O    1.0     0.41591489          0.55480134          0.11640652          0.0     
O12  O    1.0     0.91591489          0.55480134          0.11640652          0.0     
O13  O    1.0     0.41591489          0.05480134          0.14483467          0.0     
O14  O    1.0     0.91591489          0.05480134          0.14483467          0.0     
O15  O    1.0     0.16591489          0.35387134          0.20303793          0.0     
O16  O    1.0     0.66591489          0.35387134          0.20303793          0.0     
O17  O    1.0     0.16591489          0.75573134          0.20303793          0.0     
O18  O    1.0     0.66591489          0.75573134          0.20303793          0.0     
O19  O    1.0     0.41591489          0.05480134          0.26124119          0.0     
O20  O    1.0     0.91591489          0.05480134          0.26124119          0.0     
O21  O    1.0     0.41521199          0.55480785          0.28836781          0.0     
O22  O    1.0     0.91331915          0.55476598          0.28959282          0.0     
O23  O    1.0     0.15864821          0.25689684          0.34835998          0.0     
O24  O    1.0     0.66296363          0.25463657          0.34906299          0.0     
O25  O    1.0     0.15858232          0.85264735          0.34837661          0.0     
O26  O    1.0     0.66301185          0.85497946          0.34906258          0.0     
O27  O    1.0     0.41676219          0.55477834          0.40396718          0.0     
O28  O    1.0     -0.08170807         0.55470428          0.4054608           0.0     
O29  O    1.0     0.39687359          0.05480029          0.43510998          0.0     
O30  O    1.0     -0.09133963         0.05470478          0.44144879          0.0     
O31  O    1.0     0.16783067          0.36411888          0.50232103          0.0     
O32  O    1.0     0.67545951          0.36544854          0.50312345          0.0     
O33  O    1.0     0.16792931          0.74497458          0.50234852          0.0     
O34  O    1.0     0.67536269          0.7437018           0.50317643          0.0     
O35  O    1.0     0.42676597          0.05458799          0.55024078          0.0     
O36  O    1.0     -0.07372964         0.05461173          0.5563439           0.0     
V37  V    1.0     0.41591489          0.05480134          0.05820326          0.0     
V38  V    1.0     0.91591489          0.05480134          0.05820326          0.0     
V39  V    1.0     0.16591489          0.55480134          0.05820326          0.0     
V40  V    1.0     0.66591489          0.55480134          0.05820326          0.0     
V41  V    1.0     0.16591489          0.05480134          0.20303793          0.0     
V42  V    1.0     0.66591489          0.05480134          0.20303793          0.0     
V43  V    1.0     0.41591489          0.55480134          0.20303793          0.0     
V44  V    1.0     0.91591489          0.55480134          0.20303793          0.0     
V45  V    1.0     0.42003263          0.05482333          0.3480674           0.0     
V46  V    1.0     0.92031155          0.05480857          0.34863662          0.0     
V47  V    1.0     0.19138446          0.55482144          0.34962561          0.0     
V48  V    1.0     0.66665364          0.55480723          0.34421529          0.0     
V49  V    1.0     0.19442393          0.05463268          0.49424335          0.0     
V50  V    1.0     0.700025            0.05459454          0.50778781          0.0     
V51  V    1.0     -0.07847386         0.55469971          0.48300582          0.0     
Ge52 Ge   1.0     0.42114893          0.55452009          0.52439535          0.0     
