data_HCOVTi
_audit_creation_method        'pos2cif.py'        
_cell_length_a                5.64711014          
_cell_length_b                6.450147843790429   
_cell_length_c                22.267278180501698  
_cell_angle_alpha             90.0                
_cell_angle_beta              90.0                
_cell_angle_gamma             90.0                
_symmetry_space_group_H-M     'P1'                
_symmetry_Int_Tables_number   '1'                 
_symmetry_cell_setting        'triclinic'         
loop_                         
_symmetry_equiv_pos_as_xyz    
x,y,z                         

loop_                         
_atom_site_label              
_atom_site_type_symbol        
_atom_site_occupancy          
_atom_site_fract_x            
_atom_site_fract_y            
_atom_site_fract_z            
_atom_site_U_iso_or_equiv     
H1   H    1.0     0.6018925           0.5546244           0.62207972          0.0     
H2   H    1.0     0.3275686           0.41418028          0.62142621          0.0     
H3   H    1.0     0.327285            0.6945136           0.62143836          0.0     
C4   C    1.0     0.41856681          0.55448127          0.60558616          0.0     
O5   O    1.0     0.41591489          0.55480134          0.0                 0.0     
O6   O    1.0     0.91591489          0.55480134          0.0                 0.0     
O7   O    1.0     0.16591489          0.25573134          0.05820326          0.0     
O8   O    1.0     0.66591489          0.25573134          0.05820326          0.0     
O9   O    1.0     0.16591489          0.85387134          0.05820326          0.0     
O10  O    1.0     0.66591489          0.85387134          0.05820326          0.0     
O11  O    1.0     0.41591489          0.55480134          0.11640652          0.0     
O12  O    1.0     0.91591489          0.55480134          0.11640652          0.0     
O13  O    1.0     0.41591489          0.05480134          0.14483467          0.0     
O14  O    1.0     0.91591489          0.05480134          0.14483467          0.0     
O15  O    1.0     0.16591489          0.35387134          0.20303793          0.0     
O16  O    1.0     0.66591489          0.35387134          0.20303793          0.0     
O17  O    1.0     0.16591489          0.75573134          0.20303793          0.0     
O18  O    1.0     0.66591489          0.75573134          0.20303793          0.0     
O19  O    1.0     0.41591489          0.05480134          0.26124119          0.0     
O20  O    1.0     0.91591489          0.05480134          0.26124119          0.0     
O21  O    1.0     0.41378567          0.55489307          0.28815614          0.0     
O22  O    1.0     0.91411911          0.55484097          0.29013048          0.0     
O23  O    1.0     0.16561599          0.25535446          0.3483873           0.0     
O24  O    1.0     0.66656569          0.25762317          0.34829497          0.0     
O25  O    1.0     0.16552518          0.85449045          0.34839065          0.0     
O26  O    1.0     0.66655439          0.85214771          0.34830594          0.0     
O27  O    1.0     0.41201231          0.555018            0.40521938          0.0     
O28  O    1.0     -0.08773582         0.55497059          0.40584565          0.0     
O29  O    1.0     0.40670803          0.05486182          0.43679683          0.0     
O30  O    1.0     -0.09591058         0.05487691          0.43671831          0.0     
O31  O    1.0     0.15852443          0.35797112          0.49949623          0.0     
O32  O    1.0     0.67782859          0.35987445          0.50075792          0.0     
O33  O    1.0     0.15857099          0.75198833          0.49954069          0.0     
O34  O    1.0     0.67784642          0.74994911          0.50081479          0.0     
O35  O    1.0     0.43078255          0.05493188          0.55094417          0.0     
O36  O    1.0     -0.06924287         0.05490999          0.55165127          0.0     
V37  V    1.0     0.41591489          0.05480134          0.05820326          0.0     
V38  V    1.0     0.91591489          0.05480134          0.05820326          0.0     
V39  V    1.0     0.16591489          0.55480134          0.05820326          0.0     
V40  V    1.0     0.66591489          0.55480134          0.05820326          0.0     
V41  V    1.0     0.16591489          0.05480134          0.20303793          0.0     
V42  V    1.0     0.66591489          0.05480134          0.20303793          0.0     
V43  V    1.0     0.41591489          0.55480134          0.20303793          0.0     
V44  V    1.0     0.91591489          0.55480134          0.20303793          0.0     
V45  V    1.0     0.40944229          0.05489782          0.35070249          0.0     
V46  V    1.0     0.90736257          0.05490176          0.34768113          0.0     
V47  V    1.0     0.1640647           0.55491365          0.34411981          0.0     
V48  V    1.0     0.63824186          0.55492784          0.34928819          0.0     
V49  V    1.0     0.20070401          0.0549209           0.50067449          0.0     
V50  V    1.0     0.70542302          0.0549212           0.4998562           0.0     
V51  V    1.0     -0.07652112         0.55499624          0.48327923          0.0     
Ti52 Ti   1.0     0.42230841          0.55487446          0.51211577          0.0     
