data_HCOVRu
_audit_creation_method        'pos2cif.py'        
_cell_length_a                5.64711014          
_cell_length_b                6.450147843790429   
_cell_length_c                22.267278180501698  
_cell_angle_alpha             90.0                
_cell_angle_beta              90.0                
_cell_angle_gamma             90.0                
_symmetry_space_group_H-M     'P1'                
_symmetry_Int_Tables_number   '1'                 
_symmetry_cell_setting        'triclinic'         
loop_                         
_symmetry_equiv_pos_as_xyz    
x,y,z                         

loop_                         
_atom_site_label              
_atom_site_type_symbol        
_atom_site_occupancy          
_atom_site_fract_x            
_atom_site_fract_y            
_atom_site_fract_z            
_atom_site_U_iso_or_equiv     
H1   H    1.0     0.58580155          0.55469503          0.60944878          0.0     
H2   H    1.0     0.31146199          0.41389864          0.60899513          0.0     
H3   H    1.0     0.31115709          0.69492567          0.6090452           0.0     
C4   C    1.0     0.40199859          0.55459002          0.59341429          0.0     
O5   O    1.0     0.41591489          0.55480134          0.0                 0.0     
O6   O    1.0     0.91591489          0.55480134          0.0                 0.0     
O7   O    1.0     0.16591489          0.25573134          0.05820326          0.0     
O8   O    1.0     0.66591489          0.25573134          0.05820326          0.0     
O9   O    1.0     0.16591489          0.85387134          0.05820326          0.0     
O10  O    1.0     0.66591489          0.85387134          0.05820326          0.0     
O11  O    1.0     0.41591489          0.55480134          0.11640652          0.0     
O12  O    1.0     0.91591489          0.55480134          0.11640652          0.0     
O13  O    1.0     0.41591489          0.05480134          0.14483467          0.0     
O14  O    1.0     0.91591489          0.05480134          0.14483467          0.0     
O15  O    1.0     0.16591489          0.35387134          0.20303793          0.0     
O16  O    1.0     0.66591489          0.35387134          0.20303793          0.0     
O17  O    1.0     0.16591489          0.75573134          0.20303793          0.0     
O18  O    1.0     0.66591489          0.75573134          0.20303793          0.0     
O19  O    1.0     0.41591489          0.05480134          0.26124119          0.0     
O20  O    1.0     0.91591489          0.05480134          0.26124119          0.0     
O21  O    1.0     0.41618274          0.55479121          0.28870174          0.0     
O22  O    1.0     0.91359886          0.55477519          0.28958915          0.0     
O23  O    1.0     0.1606744           0.2562513           0.34850918          0.0     
O24  O    1.0     0.65973305          0.25604687          0.34850438          0.0     
O25  O    1.0     0.16057117          0.85341713          0.34850753          0.0     
O26  O    1.0     0.65971502          0.85362164          0.34850326          0.0     
O27  O    1.0     0.41097474          0.55497789          0.40480317          0.0     
O28  O    1.0     -0.08044686         0.55482855          0.40678044          0.0     
O29  O    1.0     0.41200217          0.05478011          0.43789707          0.0     
O30  O    1.0     -0.09812063         0.05486357          0.43543106          0.0     
O31  O    1.0     0.15522254          0.34236554          0.4985993           0.0     
O32  O    1.0     0.68615739          0.36252895          0.50080203          0.0     
O33  O    1.0     0.15519344          0.76720253          0.498562            0.0     
O34  O    1.0     0.68623052          0.7470122           0.50084294          0.0     
O35  O    1.0     0.4431053           0.05478229          0.55271919          0.0     
O36  O    1.0     -0.06332304         0.05485186          0.55140315          0.0     
V37  V    1.0     0.41591489          0.05480134          0.05820326          0.0     
V38  V    1.0     0.91591489          0.05480134          0.05820326          0.0     
V39  V    1.0     0.16591489          0.55480134          0.05820326          0.0     
V40  V    1.0     0.66591489          0.55480134          0.05820326          0.0     
V41  V    1.0     0.16591489          0.05480134          0.20303793          0.0     
V42  V    1.0     0.66591489          0.05480134          0.20303793          0.0     
V43  V    1.0     0.41591489          0.55480134          0.20303793          0.0     
V44  V    1.0     0.91591489          0.55480134          0.20303793          0.0     
V45  V    1.0     0.4214307           0.05486096          0.34925195          0.0     
V46  V    1.0     0.9220387           0.0548642           0.34822354          0.0     
V47  V    1.0     0.18537859          0.55488587          0.34756013          0.0     
V48  V    1.0     0.67081981          0.55488113          0.34589453          0.0     
V49  V    1.0     0.21553664          0.05477524          0.50262725          0.0     
V50  V    1.0     0.71317874          0.05481124          0.49903836          0.0     
V51  V    1.0     -0.0581901          0.55476463          0.48533089          0.0     
Ru52 Ru   1.0     0.41323707          0.55479774          0.50037104          0.0     
