data_HCOVIr
_audit_creation_method        'pos2cif.py'        
_cell_length_a                5.64711014          
_cell_length_b                6.450147843790429   
_cell_length_c                22.267278180501698  
_cell_angle_alpha             90.0                
_cell_angle_beta              90.0                
_cell_angle_gamma             90.0                
_symmetry_space_group_H-M     'P1'                
_symmetry_Int_Tables_number   '1'                 
_symmetry_cell_setting        'triclinic'         
loop_                         
_symmetry_equiv_pos_as_xyz    
x,y,z                         

loop_                         
_atom_site_label              
_atom_site_type_symbol        
_atom_site_occupancy          
_atom_site_fract_x            
_atom_site_fract_y            
_atom_site_fract_z            
_atom_site_U_iso_or_equiv     
H1   H    1.0     0.56192405          0.56634083          0.6135764           0.0     
H2   H    1.0     0.30014119          0.40959639          0.60983445          0.0     
H3   H    1.0     0.27737273          0.68819239          0.60962488          0.0     
C4   C    1.0     0.3828851           0.55459483          0.5946688           0.0     
O5   O    1.0     0.41591489          0.55480134          0.0                 0.0     
O6   O    1.0     0.91591489          0.55480134          0.0                 0.0     
O7   O    1.0     0.16591489          0.25573134          0.05820326          0.0     
O8   O    1.0     0.66591489          0.25573134          0.05820326          0.0     
O9   O    1.0     0.16591489          0.85387134          0.05820326          0.0     
O10  O    1.0     0.66591489          0.85387134          0.05820326          0.0     
O11  O    1.0     0.41591489          0.55480134          0.11640652          0.0     
O12  O    1.0     0.91591489          0.55480134          0.11640652          0.0     
O13  O    1.0     0.41591489          0.05480134          0.14483467          0.0     
O14  O    1.0     0.91591489          0.05480134          0.14483467          0.0     
O15  O    1.0     0.16591489          0.35387134          0.20303793          0.0     
O16  O    1.0     0.66591489          0.35387134          0.20303793          0.0     
O17  O    1.0     0.16591489          0.75573134          0.20303793          0.0     
O18  O    1.0     0.66591489          0.75573134          0.20303793          0.0     
O19  O    1.0     0.41591489          0.05480134          0.26124119          0.0     
O20  O    1.0     0.91591489          0.05480134          0.26124119          0.0     
O21  O    1.0     0.41576189          0.55482048          0.28804192          0.0     
O22  O    1.0     0.91488732          0.55478531          0.29077223          0.0     
O23  O    1.0     0.1604144           0.25669609          0.34923065          0.0     
O24  O    1.0     0.65798969          0.25519071          0.34904537          0.0     
O25  O    1.0     0.16033428          0.85286534          0.34922904          0.0     
O26  O    1.0     0.65791347          0.8543745           0.34905983          0.0     
O27  O    1.0     0.4138207           0.55477589          0.40544062          0.0     
O28  O    1.0     -0.08083437         0.55463504          0.40631787          0.0     
O29  O    1.0     0.40766493          0.05505967          0.44114972          0.0     
O30  O    1.0     -0.10705524         0.05496245          0.43570409          0.0     
O31  O    1.0     0.14331565          0.34344133          0.50025943          0.0     
O32  O    1.0     0.6807802           0.36408181          0.50154694          0.0     
O33  O    1.0     0.14335688          0.76620624          0.50004079          0.0     
O34  O    1.0     0.68080455          0.74554585          0.5014173           0.0     
O35  O    1.0     0.42667909          0.05443119          0.55554972          0.0     
O36  O    1.0     -0.07943497         0.05465037          0.55158606          0.0     
V37  V    1.0     0.41591489          0.05480134          0.05820326          0.0     
V38  V    1.0     0.91591489          0.05480134          0.05820326          0.0     
V39  V    1.0     0.16591489          0.55480134          0.05820326          0.0     
V40  V    1.0     0.66591489          0.55480134          0.05820326          0.0     
V41  V    1.0     0.16591489          0.05480134          0.20303793          0.0     
V42  V    1.0     0.66591489          0.05480134          0.20303793          0.0     
V43  V    1.0     0.41591489          0.55480134          0.20303793          0.0     
V44  V    1.0     0.91591489          0.55480134          0.20303793          0.0     
V45  V    1.0     0.41639858          0.05483337          0.3521027           0.0     
V46  V    1.0     0.91946331          0.05480203          0.34756822          0.0     
V47  V    1.0     0.18615786          0.55481663          0.34763831          0.0     
V48  V    1.0     0.66179962          0.55481206          0.34576302          0.0     
V49  V    1.0     0.19445416          0.05481293          0.5081392           0.0     
V50  V    1.0     0.69335075          0.05493299          0.49574373          0.0     
V51  V    1.0     -0.06750112         0.55481971          0.48474794          0.0     
Ir52 Ir   1.0     0.40303255          0.5548511           0.50198042          0.0     
