data_HCOVOs
_audit_creation_method        'pos2cif.py'        
_cell_length_a                5.64711014          
_cell_length_b                6.450147843790429   
_cell_length_c                22.267278180501698  
_cell_angle_alpha             90.0                
_cell_angle_beta              90.0                
_cell_angle_gamma             90.0                
_symmetry_space_group_H-M     'P1'                
_symmetry_Int_Tables_number   '1'                 
_symmetry_cell_setting        'triclinic'         
loop_                         
_symmetry_equiv_pos_as_xyz    
x,y,z                         

loop_                         
_atom_site_label              
_atom_site_type_symbol        
_atom_site_occupancy          
_atom_site_fract_x            
_atom_site_fract_y            
_atom_site_fract_z            
_atom_site_U_iso_or_equiv     
H1   H    1.0     0.61937777          0.55461089          0.61105285          0.0     
H2   H    1.0     0.34572881          0.41512729          0.61016389          0.0     
H3   H    1.0     0.34558376          0.69378427          0.61018934          0.0     
C4   C    1.0     0.43673103          0.55454987          0.59368456          0.0     
O5   O    1.0     0.41591489          0.55480134          0.0                 0.0     
O6   O    1.0     0.91591489          0.55480134          0.0                 0.0     
O7   O    1.0     0.16591489          0.25573134          0.05820326          0.0     
O8   O    1.0     0.66591489          0.25573134          0.05820326          0.0     
O9   O    1.0     0.16591489          0.85387134          0.05820326          0.0     
O10  O    1.0     0.66591489          0.85387134          0.05820326          0.0     
O11  O    1.0     0.41591489          0.55480134          0.11640652          0.0     
O12  O    1.0     0.91591489          0.55480134          0.11640652          0.0     
O13  O    1.0     0.41591489          0.05480134          0.14483467          0.0     
O14  O    1.0     0.91591489          0.05480134          0.14483467          0.0     
O15  O    1.0     0.16591489          0.35387134          0.20303793          0.0     
O16  O    1.0     0.66591489          0.35387134          0.20303793          0.0     
O17  O    1.0     0.16591489          0.75573134          0.20303793          0.0     
O18  O    1.0     0.66591489          0.75573134          0.20303793          0.0     
O19  O    1.0     0.41591489          0.05480134          0.26124119          0.0     
O20  O    1.0     0.91591489          0.05480134          0.26124119          0.0     
O21  O    1.0     0.41567142          0.55480212          0.28824921          0.0     
O22  O    1.0     0.91577232          0.55471186          0.28994169          0.0     
O23  O    1.0     0.1649782           0.25726806          0.3484859           0.0     
O24  O    1.0     0.66283686          0.25546268          0.34900264          0.0     
O25  O    1.0     0.16488542          0.85222926          0.34850254          0.0     
O26  O    1.0     0.66287728          0.85406482          0.34901481          0.0     
O27  O    1.0     0.41531416          0.55472884          0.40610032          0.0     
O28  O    1.0     -0.08789771         0.55468046          0.40625583          0.0     
O29  O    1.0     0.42049104          0.0547929           0.43967661          0.0     
O30  O    1.0     -0.06630352         0.05488665          0.43531225          0.0     
O31  O    1.0     0.15705615          0.36381948          0.49969043          0.0     
O32  O    1.0     0.68481488          0.34045417          0.49885946          0.0     
O33  O    1.0     0.15708005          0.74560105          0.49966693          0.0     
O34  O    1.0     0.68477477          0.76899265          0.49881508          0.0     
O35  O    1.0     0.39835858          0.05469204          0.55417005          0.0     
O36  O    1.0     -0.09192245         0.05471111          0.55097663          0.0     
V37  V    1.0     0.41591489          0.05480134          0.05820326          0.0     
V38  V    1.0     0.91591489          0.05480134          0.05820326          0.0     
V39  V    1.0     0.16591489          0.55480134          0.05820326          0.0     
V40  V    1.0     0.66591489          0.55480134          0.05820326          0.0     
V41  V    1.0     0.16591489          0.05480134          0.20303793          0.0     
V42  V    1.0     0.66591489          0.05480134          0.20303793          0.0     
V43  V    1.0     0.41591489          0.55480134          0.20303793          0.0     
V44  V    1.0     0.91591489          0.55480134          0.20303793          0.0     
V45  V    1.0     0.42156515          0.05476476          0.35108592          0.0     
V46  V    1.0     0.92310663          0.05479258          0.34761579          0.0     
V47  V    1.0     0.18671112          0.5547728           0.34850124          0.0     
V48  V    1.0     0.66735875          0.55477423          0.34397656          0.0     
V49  V    1.0     0.13065689          0.05477109          0.49655476          0.0     
V50  V    1.0     0.62858534          0.05473413          0.50566399          0.0     
V51  V    1.0     -0.1030511          0.55471633          0.48442905          0.0     
Os52 Os   1.0     0.43305413          0.55471924          0.50000377          0.0     
