data_HCOV
_audit_creation_method        'pos2cif.py'        
_cell_length_a                5.64711014          
_cell_length_b                6.450147843790429   
_cell_length_c                22.267278180501698  
_cell_angle_alpha             90.0                
_cell_angle_beta              90.0                
_cell_angle_gamma             90.0                
_symmetry_space_group_H-M     'P1'                
_symmetry_Int_Tables_number   '1'                 
_symmetry_cell_setting        'triclinic'         
loop_                         
_symmetry_equiv_pos_as_xyz    
x,y,z                         

loop_                         
_atom_site_label              
_atom_site_type_symbol        
_atom_site_occupancy          
_atom_site_fract_x            
_atom_site_fract_y            
_atom_site_fract_z            
_atom_site_U_iso_or_equiv     
H1   H    1.0     0.60396681          0.55444288          0.61119061          0.0     
H2   H    1.0     0.32892306          0.41385745          0.60992926          0.0     
H3   H    1.0     0.3288296           0.69486589          0.60993646          0.0     
C4   C    1.0     0.4207701           0.55439528          0.59496404          0.0     
O5   O    1.0     0.41591489          0.55480134          0.0                 0.0     
O6   O    1.0     0.91591489          0.55480134          0.0                 0.0     
O7   O    1.0     0.16591489          0.25573134          0.05820326          0.0     
O8   O    1.0     0.66591489          0.25573134          0.05820326          0.0     
O9   O    1.0     0.16591489          0.85387134          0.05820326          0.0     
O10  O    1.0     0.66591489          0.85387134          0.05820326          0.0     
O11  O    1.0     0.41591489          0.55480134          0.11640652          0.0     
O12  O    1.0     0.91591489          0.55480134          0.11640652          0.0     
O13  O    1.0     0.41591489          0.05480134          0.14483467          0.0     
O14  O    1.0     0.91591489          0.05480134          0.14483467          0.0     
O15  O    1.0     0.16591489          0.35387134          0.20303793          0.0     
O16  O    1.0     0.66591489          0.35387134          0.20303793          0.0     
O17  O    1.0     0.16591489          0.75573134          0.20303793          0.0     
O18  O    1.0     0.66591489          0.75573134          0.20303793          0.0     
O19  O    1.0     0.41591489          0.05480134          0.26124119          0.0     
O20  O    1.0     0.91591489          0.05480134          0.26124119          0.0     
O21  O    1.0     0.41513728          0.55483101          0.28740947          0.0     
O22  O    1.0     0.91509217          0.55475291          0.29002859          0.0     
O23  O    1.0     0.16482961          0.2562708           0.34785823          0.0     
O24  O    1.0     0.66416727          0.255832            0.34783416          0.0     
O25  O    1.0     0.16481045          0.85334676          0.3478568           0.0     
O26  O    1.0     0.66416205          0.85379141          0.34783957          0.0     
O27  O    1.0     0.41545004          0.55471258          0.40496352          0.0     
O28  O    1.0     -0.08500695         0.55482469          0.40450121          0.0     
O29  O    1.0     0.41402624          0.0547661           0.43605939          0.0     
O30  O    1.0     -0.08537967         0.05474168          0.43603889          0.0     
O31  O    1.0     0.16057484          0.36253899          0.49837627          0.0     
O32  O    1.0     0.66868769          0.36007033          0.49846645          0.0     
O33  O    1.0     0.16061455          0.7467864           0.498345            0.0     
O34  O    1.0     0.66866412          0.74923884          0.49849755          0.0     
O35  O    1.0     0.41512292          0.05466897          0.54839631          0.0     
O36  O    1.0     -0.08367448         0.05458982          0.54924502          0.0     
V37  V    1.0     0.41591489          0.05480134          0.05820326          0.0     
V38  V    1.0     0.91591489          0.05480134          0.05820326          0.0     
V39  V    1.0     0.16591489          0.55480134          0.05820326          0.0     
V40  V    1.0     0.66591489          0.55480134          0.05820326          0.0     
V41  V    1.0     0.16591489          0.05480134          0.20303793          0.0     
V42  V    1.0     0.66591489          0.05480134          0.20303793          0.0     
V43  V    1.0     0.41591489          0.55480134          0.20303793          0.0     
V44  V    1.0     0.91591489          0.55480134          0.20303793          0.0     
V45  V    1.0     0.41618368          0.05484844          0.35161251          0.0     
V46  V    1.0     0.91656672          0.05484936          0.35021413          0.0     
V47  V    1.0     0.1795881           0.55487643          0.34625383          0.0     
V48  V    1.0     0.65369779          0.5548753           0.34576884          0.0     
V49  V    1.0     0.16536597          0.0547063           0.49890962          0.0     
V50  V    1.0     0.66833186          0.05469817          0.49968317          0.0     
V51  V    1.0     0.41837579          0.55466346          0.50212712          0.0     
V52  V    1.0     -0.0856384          0.55469443          0.48241841          0.0     
