data_HCOIr
_audit_creation_method        'pos2cif.py'        
_cell_length_a                6.36215693          
_cell_length_b                6.384482994809508   
_cell_length_c                22.021598412435427  
_cell_angle_alpha             90.0                
_cell_angle_beta              90.0                
_cell_angle_gamma             90.0                
_symmetry_space_group_H-M     'P1'                
_symmetry_Int_Tables_number   '1'                 
_symmetry_cell_setting        'triclinic'         
loop_                         
_symmetry_equiv_pos_as_xyz    
x,y,z                         

loop_                         
_atom_site_label              
_atom_site_type_symbol        
_atom_site_occupancy          
_atom_site_fract_x            
_atom_site_fract_y            
_atom_site_fract_z            
_atom_site_U_iso_or_equiv     
H1   H    1.0     -0.42609129         -0.35546775         0.60697338          0.0     
H2   H    1.0     -0.66893152         -0.49722265         0.60689507          0.0     
H3   H    1.0     -0.66891575         -0.2137112          0.60690071          0.0     
C4   C    1.0     -0.58937597         -0.35547616         0.59062351          0.0     
O5   O    1.0     -0.08911189         -0.35545641         0.0                 0.0     
O6   O    1.0     -0.58911189         -0.35545641         0.0                 0.0     
O7   O    1.0     -0.33911189         -0.04692641         0.05551082          0.0     
O8   O    1.0     -0.83911189         -0.04692641         0.05551082          0.0     
O9   O    1.0     -0.33911189         -0.66398641         0.05551082          0.0     
O10  O    1.0     -0.83911189         -0.66398641         0.05551082          0.0     
O11  O    1.0     -0.08911189         -0.35545641         0.11102164          0.0     
O12  O    1.0     -0.58911189         -0.35545641         0.11102164          0.0     
O13  O    1.0     -0.08911189         -0.85545641         0.14495957          0.0     
O14  O    1.0     -0.58911189         -0.85545641         0.14495957          0.0     
O15  O    1.0     -0.33911189         -0.16398641         0.20047039          0.0     
O16  O    1.0     -0.83911189         -0.16398641         0.20047039          0.0     
O17  O    1.0     -0.33911189         -0.54692641         0.20047039          0.0     
O18  O    1.0     -0.83911189         -0.54692641         0.20047039          0.0     
O19  O    1.0     -0.08911189         -0.85545641         0.25598121          0.0     
O20  O    1.0     -0.58911189         -0.85545641         0.25598121          0.0     
O21  O    1.0     -0.08923275         -0.35545832         0.29028336          0.0     
O22  O    1.0     -0.58921975         -0.35541659         0.28960213          0.0     
O23  O    1.0     -0.33959883         -0.04693836         0.34639099          0.0     
O24  O    1.0     -0.83888625         -0.04693847         0.3463852           0.0     
O25  O    1.0     -0.33960196         -0.66400109         0.34636334          0.0     
O26  O    1.0     -0.83885508         -0.663995           0.34635567          0.0     
O27  O    1.0     -1.08931862         -0.35573481         0.40030492          0.0     
O28  O    1.0     -0.58934692         -0.35551493         0.40017095          0.0     
O29  O    1.0     -1.08947606         -0.85549664         0.4367879           0.0     
O30  O    1.0     -0.58928231         -0.8555328          0.43675688          0.0     
O31  O    1.0     -0.33892529         -0.16489626         0.49481746          0.0     
O32  O    1.0     -0.83998557         -0.16484855         0.49458552          0.0     
O33  O    1.0     -0.33893727         -0.54604348         0.49481383          0.0     
O34  O    1.0     -0.83996442         -0.54607177         0.4945867           0.0     
O35  O    1.0     -1.08926402         -0.85550858         0.54758175          0.0     
O36  O    1.0     -0.58947557         -0.8554712          0.54733984          0.0     
Ir37 Ir   1.0     -0.33911189         -0.35545641         0.05551082          0.0     
Ir38 Ir   1.0     -0.83911189         -0.35545641         0.05551082          0.0     
Ir39 Ir   1.0     -0.08911189         -0.85545641         0.05551082          0.0     
Ir40 Ir   1.0     -0.58911189         -0.85545641         0.05551082          0.0     
Ir41 Ir   1.0     -0.08911189         -0.35545641         0.20047039          0.0     
Ir42 Ir   1.0     -0.58911189         -0.35545641         0.20047039          0.0     
Ir43 Ir   1.0     -0.33911189         -0.85545641         0.20047039          0.0     
Ir44 Ir   1.0     -0.83911189         -0.85545641         0.20047039          0.0     
Ir45 Ir   1.0     -0.34169117         -0.35546634         0.34541743          0.0     
Ir46 Ir   1.0     -0.83681356         -0.35545986         0.34540414          0.0     
Ir47 Ir   1.0     -0.08923779         -0.85545707         0.34677625          0.0     
Ir48 Ir   1.0     -0.58921249         -0.85546381         0.34681689          0.0     
Ir49 Ir   1.0     -1.08948275         -0.35544774         0.48882097          0.0     
Ir50 Ir   1.0     -0.58927099         -0.35545355         0.49673963          0.0     
Ir51 Ir   1.0     -0.33944864         -0.85546472         0.493762            0.0     
Ir52 Ir   1.0     -0.83938283         -0.85545404         0.49366849          0.0     
