data_HCOGe
_audit_creation_method        'pos2cif.py'        
_cell_length_a                5.84467938          
_cell_length_b                6.319380210866815   
_cell_length_c                21.929220412764163  
_cell_angle_alpha             90.0                
_cell_angle_beta              90.0                
_cell_angle_gamma             90.0                
_symmetry_space_group_H-M     'P1'                
_symmetry_Int_Tables_number   '1'                 
_symmetry_cell_setting        'triclinic'         
loop_                         
_symmetry_equiv_pos_as_xyz    
x,y,z                         

loop_                         
_atom_site_label              
_atom_site_type_symbol        
_atom_site_occupancy          
_atom_site_fract_x            
_atom_site_fract_y            
_atom_site_fract_z            
_atom_site_U_iso_or_equiv     
H1   H    1.0     0.44539269          0.57018229          0.60856801          0.0     
H2   H    1.0     0.7187268           0.41983567          0.60522429          0.0     
H3   H    1.0     0.71874703          0.72056301          0.60520436          0.0     
C4   C    1.0     0.6288965           0.57020682          0.60052539          0.0     
O5   O    1.0     0.13081166          0.5696981           0.0                 0.0     
O6   O    1.0     0.63081166          0.5696981           0.0                 0.0     
O7   O    1.0     0.38081166          0.2635581           0.05586496          0.0     
O8   O    1.0     0.88081166          0.2635581           0.05586496          0.0     
O9   O    1.0     0.38081166          0.8758381           0.05586496          0.0     
O10  O    1.0     0.88081166          0.8758381           0.05586496          0.0     
O11  O    1.0     0.13081166          0.5696981           0.11172992          0.0     
O12  O    1.0     0.63081166          0.5696981           0.11172992          0.0     
O13  O    1.0     0.13081166          0.0696981           0.14408584          0.0     
O14  O    1.0     0.63081166          0.0696981           0.14408584          0.0     
O15  O    1.0     0.38081166          0.3758381           0.1999508           0.0     
O16  O    1.0     0.88081166          0.3758381           0.1999508           0.0     
O17  O    1.0     0.38081166          0.7635581           0.1999508           0.0     
O18  O    1.0     0.88081166          0.7635581           0.1999508           0.0     
O19  O    1.0     0.13081166          0.0696981           0.25581576          0.0     
O20  O    1.0     0.63081166          0.0696981           0.25581576          0.0     
O21  O    1.0     0.13079703          0.56962611          0.28754728          0.0     
O22  O    1.0     0.63096285          0.56968333          0.28770528          0.0     
O23  O    1.0     0.38114716          0.26546076          0.34390019          0.0     
O24  O    1.0     0.88055529          0.26543384          0.34399134          0.0     
O25  O    1.0     0.38115262          0.87373837          0.34390984          0.0     
O26  O    1.0     0.88057288          0.87375598          0.34400865          0.0     
O27  O    1.0     0.1312887           0.56973311          0.39759125          0.0     
O28  O    1.0     0.63079117          0.56969707          0.40005473          0.0     
O29  O    1.0     0.13164215          0.06994025          0.43327217          0.0     
O30  O    1.0     0.63091799          0.06989588          0.43366907          0.0     
O31  O    1.0     0.3774642           0.38236698          0.49412541          0.0     
O32  O    1.0     0.88546242          0.38241166          0.49362099          0.0     
O33  O    1.0     0.37744807          0.75751104          0.49408676          0.0     
O34  O    1.0     0.88551403          0.75741592          0.49358978          0.0     
O35  O    1.0     0.13091181          0.06996505          0.54718803          0.0     
O36  O    1.0     0.63293122          0.06985946          0.54679749          0.0     
Ge37 Ge   1.0     0.13081166          0.0696981           0.05586496          0.0     
Ge38 Ge   1.0     0.63081166          0.0696981           0.05586496          0.0     
Ge39 Ge   1.0     0.38081166          0.5696981           0.05586496          0.0     
Ge40 Ge   1.0     0.88081166          0.5696981           0.05586496          0.0     
Ge41 Ge   1.0     0.38081166          0.0696981           0.1999508           0.0     
Ge42 Ge   1.0     0.88081166          0.0696981           0.1999508           0.0     
Ge43 Ge   1.0     0.13081166          0.5696981           0.1999508           0.0     
Ge44 Ge   1.0     0.63081166          0.5696981           0.1999508           0.0     
Ge45 Ge   1.0     0.13090568          0.06960822          0.34643068          0.0     
Ge46 Ge   1.0     0.63075294          0.06959469          0.34684055          0.0     
Ge47 Ge   1.0     0.38241407          0.56957067          0.34192524          0.0     
Ge48 Ge   1.0     0.87943328          0.56957525          0.34200886          0.0     
Ge49 Ge   1.0     0.38084186          0.06989813          0.49609704          0.0     
Ge50 Ge   1.0     0.8828472           0.06988745          0.4952558           0.0     
Ge51 Ge   1.0     0.13145383          0.56988095          0.48053863          0.0     
Ge52 Ge   1.0     0.63133332          0.56991263          0.48623984          0.0     
