data_HCORuIr
_audit_creation_method        'pos2cif.py'        
_cell_length_a                6.36215693          
_cell_length_b                6.38448299          
_cell_length_c                22.02159841         
_cell_angle_alpha             90.0                
_cell_angle_beta              90.0                
_cell_angle_gamma             90.0                
_symmetry_space_group_H-M     'P1'                
_symmetry_Int_Tables_number   '1'                 
_symmetry_cell_setting        'triclinic'         
loop_                         
_symmetry_equiv_pos_as_xyz    
x,y,z                         

loop_                         
_atom_site_label              
_atom_site_type_symbol        
_atom_site_occupancy          
_atom_site_fract_x            
_atom_site_fract_y            
_atom_site_fract_z            
_atom_site_U_iso_or_equiv     
H1   H    1.0     -0.5793171          -0.2513016          0.58360284          0.0     
H2   H    1.0     -0.58744452         -0.61140778         0.56351156          0.0     
H3   H    1.0     -0.73086488         -0.44739963         0.61809114          0.0     
H4   H    1.0     -0.44449137         -0.45686261         0.61860274          0.0     
C5   C    1.0     -0.58624915         -0.42351804         0.59184864          0.0     
O6   O    1.0     -0.08911            -0.35546            0.0                 0.0     
O7   O    1.0     -0.58911            -0.35546            0.0                 0.0     
O8   O    1.0     -0.33911            -1.04693            0.05551             0.0     
O9   O    1.0     -0.83911            -1.04693            0.05551             0.0     
O10  O    1.0     -0.33911            -0.66399            0.05551             0.0     
O11  O    1.0     -0.83911            -0.66399            0.05551             0.0     
O12  O    1.0     -0.08911            -0.35546            0.11102             0.0     
O13  O    1.0     -0.58911            -0.35546            0.11102             0.0     
O14  O    1.0     -0.58911            -0.85546            0.14496             0.0     
O15  O    1.0     -0.08911            -0.85546            0.14496             0.0     
O16  O    1.0     -0.33911            -0.16399            0.20047             0.0     
O17  O    1.0     -0.83911            -0.16399            0.20047             0.0     
O18  O    1.0     -0.33911            -0.54693            0.20047             0.0     
O19  O    1.0     -0.83911            -0.54693            0.20047             0.0     
O20  O    1.0     -0.08911            -0.85546            0.25598             0.0     
O21  O    1.0     -0.58911            -0.85546            0.25598             0.0     
O22  O    1.0     -0.08884698         -0.35816688         0.29011592          0.0     
O23  O    1.0     -0.58884717         -0.35901918         0.28963581          0.0     
O24  O    1.0     -0.33975939         -1.04632535         0.34490871          0.0     
O25  O    1.0     -0.83771151         -1.04631487         0.34490586          0.0     
O26  O    1.0     -0.33865946         -0.66379863         0.34667035          0.0     
O27  O    1.0     -0.83881288         -0.6637958          0.34666312          0.0     
O28  O    1.0     -1.08871179         -0.33906391         0.39948786          0.0     
O29  O    1.0     -0.58877474         -0.34690054         0.40151971          0.0     
O30  O    1.0     -1.08800316         -0.86666371         0.43494071          0.0     
O31  O    1.0     -0.58816934         -0.85717464         0.43599886          0.0     
O32  O    1.0     -0.3396539          -0.1616396          0.49560897          0.0     
O33  O    1.0     -0.83593012         -0.16172647         0.49589593          0.0     
O34  O    1.0     -0.33453917         -0.54395943         0.48769049          0.0     
O35  O    1.0     -0.84101044         -0.54391292         0.48785946          0.0     
O36  O    1.0     -1.08807335         -0.84365478         0.54584717          0.0     
O37  O    1.0     -0.58790945         -0.81499257         0.54794354          0.0     
Ru38 Ru   1.0     -0.58766656         -0.35701162         0.49097887          0.0     
Ir39 Ir   1.0     -0.33911            -0.35546            0.05551             0.0     
Ir40 Ir   1.0     -0.83911            -0.35546            0.05551             0.0     
Ir41 Ir   1.0     -0.08911            -0.85546            0.05551             0.0     
Ir42 Ir   1.0     -0.58911            -0.85546            0.05551             0.0     
Ir43 Ir   1.0     -0.08911            -0.35546            0.20047             0.0     
Ir44 Ir   1.0     -0.58911            -0.35546            0.20047             0.0     
Ir45 Ir   1.0     -0.33911            -0.85546            0.20047             0.0     
Ir46 Ir   1.0     -0.83911            -0.85546            0.20047             0.0     
Ir47 Ir   1.0     -0.83673055         -0.35497079         0.3453927           0.0     
Ir48 Ir   1.0     -0.34084818         -0.35498497         0.34539912          0.0     
Ir49 Ir   1.0     -0.08868968         -0.8560219          0.34575612          0.0     
Ir50 Ir   1.0     -0.58870745         -0.85511485         0.34631594          0.0     
Ir51 Ir   1.0     -1.08763536         -0.35081369         0.48752233          0.0     
Ir52 Ir   1.0     -0.33499463         -0.8506611          0.49174745          0.0     
Ir53 Ir   1.0     -0.84089972         -0.85073595         0.49181645          0.0     
