data_HCOIrTi
_audit_creation_method        'pos2cif.py'        
_cell_length_a                6.36215693          
_cell_length_b                6.384482994809508   
_cell_length_c                22.021598412435427  
_cell_angle_alpha             90.0                
_cell_angle_beta              90.0                
_cell_angle_gamma             90.0                
_symmetry_space_group_H-M     'P1'                
_symmetry_Int_Tables_number   '1'                 
_symmetry_cell_setting        'triclinic'         
loop_                         
_symmetry_equiv_pos_as_xyz    
x,y,z                         

loop_                         
_atom_site_label              
_atom_site_type_symbol        
_atom_site_occupancy          
_atom_site_fract_x            
_atom_site_fract_y            
_atom_site_fract_z            
_atom_site_U_iso_or_equiv     
H1   H    1.0     -0.57291527         -0.26194791         0.58807905          0.0     
H2   H    1.0     -0.58742434         -0.63629364         0.5648826           0.0     
H3   H    1.0     -0.73215274         -0.45772976         0.62127221          0.0     
H4   H    1.0     -0.44839556         -0.47547184         0.62311224          0.0     
C5   C    1.0     -0.58623947         -0.43367192         0.59563152          0.0     
O6   O    1.0     -0.08911189         -0.35545641         0.0                 0.0     
O7   O    1.0     -0.58911189         -0.35545641         0.0                 0.0     
O8   O    1.0     -0.33911189         -1.04692641         0.05551082          0.0     
O9   O    1.0     -0.83911189         -1.04692641         0.05551082          0.0     
O10  O    1.0     -0.33911189         -0.66398641         0.05551082          0.0     
O11  O    1.0     -0.83911189         -0.66398641         0.05551082          0.0     
O12  O    1.0     -0.08911189         -0.35545641         0.11102164          0.0     
O13  O    1.0     -0.58911189         -0.35545641         0.11102164          0.0     
O14  O    1.0     -0.08911189         -0.85545641         0.14495957          0.0     
O15  O    1.0     -0.58911189         -0.85545641         0.14495957          0.0     
O16  O    1.0     -0.33911189         -0.16398641         0.20047039          0.0     
O17  O    1.0     -0.83911189         -0.16398641         0.20047039          0.0     
O18  O    1.0     -0.33911189         -0.54692641         0.20047039          0.0     
O19  O    1.0     -0.83911189         -0.54692641         0.20047039          0.0     
O20  O    1.0     -0.08911189         -0.85545641         0.25598121          0.0     
O21  O    1.0     -0.58911189         -0.85545641         0.25598121          0.0     
O22  O    1.0     -0.08891285         -0.35623343         0.28989557          0.0     
O23  O    1.0     -0.58888916         -0.35690538         0.28974103          0.0     
O24  O    1.0     -0.34009048         -1.04522799         0.34574153          0.0     
O25  O    1.0     -0.83746095         -1.04522873         0.34573744          0.0     
O26  O    1.0     -0.33897666         -0.66199504         0.34643624          0.0     
O27  O    1.0     -0.83860095         -0.66199194         0.34642059          0.0     
O28  O    1.0     -1.08876822         -0.34046895         0.39967966          0.0     
O29  O    1.0     -0.58887624         -0.34831154         0.40263915          0.0     
O30  O    1.0     -1.08809935         -0.85935733         0.43536756          0.0     
O31  O    1.0     -0.58824971         -0.84959085         0.43609845          0.0     
O32  O    1.0     -0.34519111         -0.15239328         0.49688163          0.0     
O33  O    1.0     -0.83035925         -0.15253689         0.49732122          0.0     
O34  O    1.0     -0.33779497         -0.53485519         0.48805496          0.0     
O35  O    1.0     -0.83815583         -0.53502931         0.48814755          0.0     
O36  O    1.0     -1.08819503         -0.83280885         0.54554723          0.0     
O37  O    1.0     -0.58804513         -0.81380279         0.54821779          0.0     
Ir38 Ir   1.0     -0.33911189         -0.35545641         0.05551082          0.0     
Ir39 Ir   1.0     -0.83911189         -0.35545641         0.05551082          0.0     
Ir40 Ir   1.0     -0.08911189         -0.85545641         0.05551082          0.0     
Ir41 Ir   1.0     -0.58911189         -0.85545641         0.05551082          0.0     
Ir42 Ir   1.0     -0.08911189         -0.35545641         0.20047039          0.0     
Ir43 Ir   1.0     -0.58911189         -0.35545641         0.20047039          0.0     
Ir44 Ir   1.0     -0.33911189         -0.85545641         0.20047039          0.0     
Ir45 Ir   1.0     -0.83911189         -0.85545641         0.20047039          0.0     
Ir46 Ir   1.0     -0.34091633         -0.35347537         0.34540322          0.0     
Ir47 Ir   1.0     -0.83676919         -0.35346874         0.34538671          0.0     
Ir48 Ir   1.0     -0.08873399         -0.85456572         0.3460081           0.0     
Ir49 Ir   1.0     -0.58875283         -0.85347357         0.34640842          0.0     
Ir50 Ir   1.0     -1.08768399         -0.34163371         0.4871415           0.0     
Ir51 Ir   1.0     -0.33432236         -0.84209115         0.49155386          0.0     
Ir52 Ir   1.0     -0.8418021          -0.8421843          0.49162591          0.0     
Ti53 Ti   1.0     -0.58786679         -0.35093313         0.49168303          0.0     
