data_HCOIrV
_audit_creation_method        'pos2cif.py'        
_cell_length_a                6.36215693          
_cell_length_b                6.384482994809508   
_cell_length_c                22.021598412435427  
_cell_angle_alpha             90.0                
_cell_angle_beta              90.0                
_cell_angle_gamma             90.0                
_symmetry_space_group_H-M     'P1'                
_symmetry_Int_Tables_number   '1'                 
_symmetry_cell_setting        'triclinic'         
loop_                         
_symmetry_equiv_pos_as_xyz    
x,y,z                         

loop_                         
_atom_site_label              
_atom_site_type_symbol        
_atom_site_occupancy          
_atom_site_fract_x            
_atom_site_fract_y            
_atom_site_fract_z            
_atom_site_U_iso_or_equiv     
H1   H    1.0     -0.574698           -0.26321851         0.5822692           0.0     
H2   H    1.0     -0.58749269         -0.63443467         0.56269177          0.0     
H3   H    1.0     -0.73182141         -0.45578882         0.61740332          0.0     
H4   H    1.0     -0.44714289         -0.4711349          0.61892778          0.0     
C5   C    1.0     -0.58625888         -0.43421011         0.59140031          0.0     
O6   O    1.0     -0.08911189         -0.35545641         0.0                 0.0     
O7   O    1.0     -0.58911189         -0.35545641         0.0                 0.0     
O8   O    1.0     -0.33911189         -1.04692641         0.05551082          0.0     
O9   O    1.0     -0.83911189         -1.04692641         0.05551082          0.0     
O10  O    1.0     -0.33911189         -0.66398641         0.05551082          0.0     
O11  O    1.0     -0.83911189         -0.66398641         0.05551082          0.0     
O12  O    1.0     -0.08911189         -0.35545641         0.11102164          0.0     
O13  O    1.0     -0.58911189         -0.35545641         0.11102164          0.0     
O14  O    1.0     -0.08911189         -0.85545641         0.14495957          0.0     
O15  O    1.0     -0.58911189         -0.85545641         0.14495957          0.0     
O16  O    1.0     -0.33911189         -0.16398641         0.20047039          0.0     
O17  O    1.0     -0.83911189         -0.16398641         0.20047039          0.0     
O18  O    1.0     -0.33911189         -0.54692641         0.20047039          0.0     
O19  O    1.0     -0.83911189         -0.54692641         0.20047039          0.0     
O20  O    1.0     -0.08911189         -0.85545641         0.25598121          0.0     
O21  O    1.0     -0.58911189         -0.85545641         0.25598121          0.0     
O22  O    1.0     -0.08889335         -0.35905952         0.28993746          0.0     
O23  O    1.0     -0.58889425         -0.35950967         0.28981473          0.0     
O24  O    1.0     -0.34013029         -1.04859627         0.34537213          0.0     
O25  O    1.0     -0.83741978         -1.04859317         0.34536868          0.0     
O26  O    1.0     -0.33889414         -0.66566498         0.34661797          0.0     
O27  O    1.0     -0.83865234         -0.66567017         0.34660238          0.0     
O28  O    1.0     -1.08874274         -0.34318934         0.39950002          0.0     
O29  O    1.0     -0.58886416         -0.35183097         0.40311412          0.0     
O30  O    1.0     -1.08798142         -0.86637448         0.43518715          0.0     
O31  O    1.0     -0.58815758         -0.85673531         0.4358796           0.0     
O32  O    1.0     -0.34718472         -0.16334746         0.49515547          0.0     
O33  O    1.0     -0.82785967         -0.16357884         0.49558003          0.0     
O34  O    1.0     -0.34023152         -0.54126061         0.48721091          0.0     
O35  O    1.0     -0.83534992         -0.54150405         0.48730569          0.0     
O36  O    1.0     -1.08807048         -0.84195127         0.5452976           0.0     
O37  O    1.0     -0.58794823         -0.81943825         0.54796959          0.0     
Ir38 Ir   1.0     -0.33911189         -0.35545641         0.05551082          0.0     
Ir39 Ir   1.0     -0.83911189         -0.35545641         0.05551082          0.0     
Ir40 Ir   1.0     -0.08911189         -0.85545641         0.05551082          0.0     
Ir41 Ir   1.0     -0.58911189         -0.85545641         0.05551082          0.0     
Ir42 Ir   1.0     -0.08911189         -0.35545641         0.20047039          0.0     
Ir43 Ir   1.0     -0.58911189         -0.35545641         0.20047039          0.0     
Ir44 Ir   1.0     -0.33911189         -0.85545641         0.20047039          0.0     
Ir45 Ir   1.0     -0.83911189         -0.85545641         0.20047039          0.0     
Ir46 Ir   1.0     -0.34086244         -0.35703574         0.34549444          0.0     
Ir47 Ir   1.0     -0.83681752         -0.35703218         0.34547992          0.0     
Ir48 Ir   1.0     -0.08872016         -0.85809695         0.34593539          0.0     
Ir49 Ir   1.0     -0.58873869         -0.85699137         0.34631401          0.0     
Ir50 Ir   1.0     -1.0874205          -0.35084515         0.48698161          0.0     
Ir51 Ir   1.0     -0.33504658         -0.84987916         0.49138237          0.0     
Ir52 Ir   1.0     -0.8408337          -0.85000996         0.49145479          0.0     
V53  V    1.0     -0.58743266         -0.35676521         0.48928179          0.0     
