data_HCOOsIr
_audit_creation_method        'pos2cif.py'        
_cell_length_a                6.36215693          
_cell_length_b                6.38448299          
_cell_length_c                22.02159841         
_cell_angle_alpha             90.0                
_cell_angle_beta              90.0                
_cell_angle_gamma             90.0                
_symmetry_space_group_H-M     'P1'                
_symmetry_Int_Tables_number   '1'                 
_symmetry_cell_setting        'triclinic'         
loop_                         
_symmetry_equiv_pos_as_xyz    
x,y,z                         

loop_                         
_atom_site_label              
_atom_site_type_symbol        
_atom_site_occupancy          
_atom_site_fract_x            
_atom_site_fract_y            
_atom_site_fract_z            
_atom_site_U_iso_or_equiv     
H1   H    1.0     -0.58029293         -0.24780091         0.58374205          0.0     
H2   H    1.0     -0.58769136         -0.6023229          0.56416084          0.0     
H3   H    1.0     -0.73159284         -0.44229063         0.6186822           0.0     
H4   H    1.0     -0.44521402         -0.45107779         0.61930111          0.0     
C5   C    1.0     -0.58699529         -0.42064185         0.59228339          0.0     
O6   O    1.0     -0.08911            -0.35546            0.0                 0.0     
O7   O    1.0     -0.58911            -0.35546            0.0                 0.0     
O8   O    1.0     -0.33911            -1.04693            0.05551             0.0     
O9   O    1.0     -0.83911            -1.04693            0.05551             0.0     
O10  O    1.0     -0.33911            -0.66399            0.05551             0.0     
O11  O    1.0     -0.83911            -0.66399            0.05551             0.0     
O12  O    1.0     -0.08911            -0.35546            0.11102             0.0     
O13  O    1.0     -0.58911            -0.35546            0.11102             0.0     
O14  O    1.0     -0.58911            -0.85546            0.14496             0.0     
O15  O    1.0     -0.08911            -0.85546            0.14496             0.0     
O16  O    1.0     -0.33911            -0.16399            0.20047             0.0     
O17  O    1.0     -0.83911            -0.16399            0.20047             0.0     
O18  O    1.0     -0.33911            -0.54693            0.20047             0.0     
O19  O    1.0     -0.83911            -0.54693            0.20047             0.0     
O20  O    1.0     -0.08911            -0.85546            0.25598             0.0     
O21  O    1.0     -0.58911            -0.85546            0.25598             0.0     
O22  O    1.0     -0.08884785         -0.35851061         0.29006561          0.0     
O23  O    1.0     -0.58884762         -0.35940854         0.28967496          0.0     
O24  O    1.0     -0.33977664         -1.04634639         0.34489314          0.0     
O25  O    1.0     -0.83770071         -1.04633174         0.34489167          0.0     
O26  O    1.0     -0.3384845          -0.66393786         0.34682479          0.0     
O27  O    1.0     -0.83899123         -0.66393076         0.3468181           0.0     
O28  O    1.0     -1.08873017         -0.33671067         0.39964145          0.0     
O29  O    1.0     -0.58876431         -0.3475137          0.40219187          0.0     
O30  O    1.0     -1.08808195         -0.86687297         0.43488604          0.0     
O31  O    1.0     -0.58819493         -0.85829812         0.43604249          0.0     
O32  O    1.0     -0.34109691         -0.16351618         0.49588833          0.0     
O33  O    1.0     -0.83470649         -0.16358359         0.49613619          0.0     
O34  O    1.0     -0.33583633         -0.54408432         0.48755741          0.0     
O35  O    1.0     -0.83994864         -0.54403219         0.48767684          0.0     
O36  O    1.0     -1.08811663         -0.84468756         0.54590795          0.0     
O37  O    1.0     -0.588001           -0.81641182         0.54794638          0.0     
Os38 Os   1.0     -0.58781575         -0.35755496         0.49083559          0.0     
Ir39 Ir   1.0     -0.33911            -0.35546            0.05551             0.0     
Ir40 Ir   1.0     -0.83911            -0.35546            0.05551             0.0     
Ir41 Ir   1.0     -0.08911            -0.85546            0.05551             0.0     
Ir42 Ir   1.0     -0.58911            -0.85546            0.05551             0.0     
Ir43 Ir   1.0     -0.08911            -0.35546            0.20047             0.0     
Ir44 Ir   1.0     -0.58911            -0.35546            0.20047             0.0     
Ir45 Ir   1.0     -0.33911            -0.85546            0.20047             0.0     
Ir46 Ir   1.0     -0.83911            -0.85546            0.20047             0.0     
Ir47 Ir   1.0     -0.83751658         -0.35506816         0.34538189          0.0     
Ir48 Ir   1.0     -0.3400614          -0.35508968         0.34538636          0.0     
Ir49 Ir   1.0     -0.08869758         -0.85616227         0.34575012          0.0     
Ir50 Ir   1.0     -0.58870997         -0.85525614         0.34629936          0.0     
Ir51 Ir   1.0     -1.0877739          -0.35202824         0.48803083          0.0     
Ir52 Ir   1.0     -0.33529362         -0.8517546          0.49177644          0.0     
Ir53 Ir   1.0     -0.84073693         -0.85182623         0.49183119          0.0     
