data_HCOVMo
_audit_creation_method        'pos2cif.py'        
_cell_length_a                5.64711014          
_cell_length_b                6.450147843790429   
_cell_length_c                22.267278180501698  
_cell_angle_alpha             90.0                
_cell_angle_beta              90.0                
_cell_angle_gamma             90.0                
_symmetry_space_group_H-M     'P1'                
_symmetry_Int_Tables_number   '1'                 
_symmetry_cell_setting        'triclinic'         
loop_                         
_symmetry_equiv_pos_as_xyz    
x,y,z                         

loop_                         
_atom_site_label              
_atom_site_type_symbol        
_atom_site_occupancy          
_atom_site_fract_x            
_atom_site_fract_y            
_atom_site_fract_z            
_atom_site_U_iso_or_equiv     
H1   H    1.0     0.41641275          0.25948391          0.5691536           0.0     
H2   H    1.0     0.41644625          0.62981515          0.5953935           0.0     
H3   H    1.0     0.57693451          0.41889105          0.62470549          0.0     
H4   H    1.0     0.25638722          0.41889395          0.62487513          0.0     
C5   C    1.0     0.41644122          0.45852856          0.59930866          0.0     
O6   O    1.0     0.41591489          0.55480134          0.0                 0.0     
O7   O    1.0     0.91591489          0.55480134          0.0                 0.0     
O8   O    1.0     0.16591489          0.25573134          0.05820326          0.0     
O9   O    1.0     0.66591489          0.25573134          0.05820326          0.0     
O10  O    1.0     0.16591489          -0.14612866         0.05820326          0.0     
O11  O    1.0     0.66591489          -0.14612866         0.05820326          0.0     
O12  O    1.0     0.41591489          0.55480134          0.11640652          0.0     
O13  O    1.0     0.91591489          0.55480134          0.11640652          0.0     
O14  O    1.0     0.41591489          0.05480134          0.14483467          0.0     
O15  O    1.0     0.91591489          0.05480134          0.14483467          0.0     
O16  O    1.0     0.16591489          0.35387134          0.20303793          0.0     
O17  O    1.0     0.66591489          0.35387134          0.20303793          0.0     
O18  O    1.0     0.16591489          -0.24426866         0.20303793          0.0     
O19  O    1.0     0.66591489          -0.24426866         0.20303793          0.0     
O20  O    1.0     0.41591489          0.05480134          0.26124119          0.0     
O21  O    1.0     0.91591489          0.05480134          0.26124119          0.0     
O22  O    1.0     0.41642322          0.54975576          0.28812864          0.0     
O23  O    1.0     0.91634084          0.55092266          0.29006152          0.0     
O24  O    1.0     0.1649542           0.25343204          0.35091513          0.0     
O25  O    1.0     0.66445051          0.25314342          0.35095618          0.0     
O26  O    1.0     0.16719809          -0.15113699         0.34759419          0.0     
O27  O    1.0     0.66246208          -0.15087205         0.34767955          0.0     
O28  O    1.0     0.41613194          0.5535492           0.40909316          0.0     
O29  O    1.0     -0.08368136         0.56411598          0.40612387          0.0     
O30  O    1.0     0.41358018          0.03674763          0.43873928          0.0     
O31  O    1.0     -0.08583323         0.03175641          0.43784415          0.0     
O32  O    1.0     0.14611154          0.34168054          0.4952872           0.0     
O33  O    1.0     0.6856279           0.34181005          0.49514744          0.0     
O34  O    1.0     0.15765136          0.74095107          0.50828772          0.0     
O35  O    1.0     0.67413185          0.74086113          0.50820714          0.0     
O36  O    1.0     0.41579783          0.08343144          0.5535395           0.0     
O37  O    1.0     -0.08447968         0.05003472          0.5528148           0.0     
V38  V    1.0     0.41591489          0.05480134          0.05820326          0.0     
V39  V    1.0     0.91591489          0.05480134          0.05820326          0.0     
V40  V    1.0     0.16591489          0.55480134          0.05820326          0.0     
V41  V    1.0     0.66591489          0.55480134          0.05820326          0.0     
V42  V    1.0     0.16591489          0.05480134          0.20303793          0.0     
V43  V    1.0     0.66591489          0.05480134          0.20303793          0.0     
V44  V    1.0     0.41591489          0.55480134          0.20303793          0.0     
V45  V    1.0     0.91591489          0.55480134          0.20303793          0.0     
V46  V    1.0     0.41797584          0.04989092          0.35261455          0.0     
V47  V    1.0     0.91863272          0.04959333          0.34979313          0.0     
V48  V    1.0     0.17346103          0.55067394          0.34491096          0.0     
V49  V    1.0     0.66160163          0.55059053          0.34473095          0.0     
V50  V    1.0     0.1589529           0.04276105          0.49984894          0.0     
V51  V    1.0     0.67585621          0.04258996          0.49901066          0.0     
V52  V    1.0     -0.08393562         0.54750494          0.48360737          0.0     
Mo53 Mo   1.0     0.41587887          0.54057831          0.49432378          0.0     
