data_HCOVMn
_audit_creation_method        'pos2cif.py by jyxu'
_cell_length_a                5.64711014          
_cell_length_b                6.45014784          
_cell_length_c                22.26727818         
_cell_angle_alpha             90.0                
_cell_angle_beta              90.0                
_cell_angle_gamma             90.0                
_symmetry_space_group_H-M     'P1'                
_symmetry_Int_Tables_number   '1'                 
_symmetry_cell_setting        'triclinic'         
loop_                         
_symmetry_equiv_pos_as_xyz    
x,y,z                         

loop_                         
_atom_site_label              
_atom_site_type_symbol        
_atom_site_occupancy          
_atom_site_fract_x            
_atom_site_fract_y            
_atom_site_fract_z            
_atom_site_U_iso_or_equiv     
H2        H         1.0     0.41615951          0.26483134          0.56955737          0.0     
H3        H         1.0     0.41596212          0.63209685          0.59711843          0.0     
H4        H         1.0     0.57711899          0.41899156          0.6255953           0.0     
H5        H         1.0     0.25486239          0.41888478          0.62552639          0.0     
C2        C         1.0     0.41605118          0.46175436          0.60086138          0.0     
O2        O         1.0     0.41591489          0.55480134          0.0                 0.0     
O3        O         1.0     -0.08408511         0.55480134          0.0                 0.0     
O4        O         1.0     0.16591489          0.25573134          0.05820326          0.0     
O5        O         1.0     0.66591489          0.25573134          0.05820326          0.0     
O6        O         1.0     0.16591489          -0.14612866         0.05820326          0.0     
O7        O         1.0     0.66591489          -0.14612866         0.05820326          0.0     
O8        O         1.0     0.41591489          0.55480134          0.11640652          0.0     
O9        O         1.0     -0.08408511         0.55480134          0.11640652          0.0     
O10       O         1.0     -0.08408511         0.05480134          0.14483467          0.0     
O11       O         1.0     0.41591489          0.05480134          0.14483467          0.0     
O12       O         1.0     0.16591489          0.35387134          0.20303793          0.0     
O13       O         1.0     0.66591489          0.35387134          0.20303793          0.0     
O14       O         1.0     0.16591489          -0.24426866         0.20303793          0.0     
O15       O         1.0     0.66591489          -0.24426866         0.20303793          0.0     
O16       O         1.0     0.41591489          0.05480134          0.26124119          0.0     
O17       O         1.0     -0.08408511         0.05480134          0.26124119          0.0     
O18       O         1.0     0.41605473          0.55172151          0.28810827          0.0     
O19       O         1.0     -0.0841887          0.55173407          0.29097639          0.0     
O20       O         1.0     0.16487777          0.25466459          0.34976364          0.0     
O21       O         1.0     0.66559631          0.25441525          0.34980772          0.0     
O22       O         1.0     0.16613681          -0.14821842         0.34690902          0.0     
O23       O         1.0     0.66424356          -0.14798858         0.34696835          0.0     
O24       O         1.0     0.41598611          0.55565597          0.40627769          0.0     
O25       O         1.0     -0.08385151         0.56447294          0.40492628          0.0     
O26       O         1.0     0.41537788          0.03949273          0.43701966          0.0     
O27       O         1.0     -0.08447455         0.03805393          0.43642348          0.0     
O28       O         1.0     0.15154947          0.35103816          0.49403489          0.0     
O29       O         1.0     0.68063754          0.35109957          0.49404082          0.0     
O30       O         1.0     0.16236097          0.73467015          0.50413387          0.0     
O31       O         1.0     0.66985324          0.73469006          0.50411109          0.0     
O32       O         1.0     0.41605774          0.08843028          0.55240389          0.0     
O33       O         1.0     -0.08403119         0.04843407          0.5497428           0.0     
V2        V         1.0     0.41591489          0.05480134          0.05820326          0.0     
V3        V         1.0     -0.08408511         0.05480134          0.05820326          0.0     
V4        V         1.0     0.16591489          0.55480134          0.05820326          0.0     
V5        V         1.0     0.66591489          0.55480134          0.05820326          0.0     
V6        V         1.0     0.16591489          0.05480134          0.20303793          0.0     
V7        V         1.0     0.66591489          0.05480134          0.20303793          0.0     
V8        V         1.0     0.41591489          0.55480134          0.20303793          0.0     
V9        V         1.0     -0.08408511         0.55480134          0.20303793          0.0     
V10       V         1.0     0.1792045           0.55497551          0.34676975          0.0     
V11       V         1.0     0.65405121          0.55496554          0.34663525          0.0     
V12       V         1.0     0.41628969          0.05300992          0.35122068          0.0     
V13       V         1.0     -0.08345805         0.05360376          0.34890747          0.0     
V14       V         1.0     -0.08387701         0.5498021           0.48281852          0.0     
V15       V         1.0     0.16253141          0.04355946          0.49775662          0.0     
V16       V         1.0     0.67024152          0.04351214          0.49769824          0.0     
Mn2       Mn        1.0     0.41610868          0.53489681          0.50020369          0.0     
