data_HCOVCr
_audit_creation_method        'pos2cif.py by jyxu'
_cell_length_a                5.64711014          
_cell_length_b                6.45014784          
_cell_length_c                22.26727818         
_cell_angle_alpha             90.0                
_cell_angle_beta              90.0                
_cell_angle_gamma             90.0                
_symmetry_space_group_H-M     'P1'                
_symmetry_Int_Tables_number   '1'                 
_symmetry_cell_setting        'triclinic'         
loop_                         
_symmetry_equiv_pos_as_xyz    
x,y,z                         

loop_                         
_atom_site_label              
_atom_site_type_symbol        
_atom_site_occupancy          
_atom_site_fract_x            
_atom_site_fract_y            
_atom_site_fract_z            
_atom_site_U_iso_or_equiv     
H2        H         1.0     0.41618318          0.26196539          0.56742313          0.0     
H3        H         1.0     0.41621815          0.63771766          0.59267361          0.0     
H4        H         1.0     0.5769129           0.4262437           0.62165262          0.0     
H5        H         1.0     0.25537035          0.42621537          0.62168517          0.0     
C2        C         1.0     0.41608308          0.46724647          0.59655371          0.0     
O2        O         1.0     0.41591489          0.55480134          0.0                 0.0     
O3        O         1.0     -0.08408511         0.55480134          0.0                 0.0     
O4        O         1.0     0.16591489          0.25573134          0.05820326          0.0     
O5        O         1.0     0.66591489          0.25573134          0.05820326          0.0     
O6        O         1.0     0.16591489          -0.14612866         0.05820326          0.0     
O7        O         1.0     0.66591489          -0.14612866         0.05820326          0.0     
O8        O         1.0     0.41591489          0.55480134          0.11640652          0.0     
O9        O         1.0     -0.08408511         0.55480134          0.11640652          0.0     
O10       O         1.0     -0.08408511         0.05480134          0.14483467          0.0     
O11       O         1.0     0.41591489          0.05480134          0.14483467          0.0     
O12       O         1.0     0.16591489          0.35387134          0.20303793          0.0     
O13       O         1.0     0.66591489          0.35387134          0.20303793          0.0     
O14       O         1.0     0.16591489          -0.24426866         0.20303793          0.0     
O15       O         1.0     0.66591489          -0.24426866         0.20303793          0.0     
O16       O         1.0     0.41591489          0.05480134          0.26124119          0.0     
O17       O         1.0     -0.08408511         0.05480134          0.26124119          0.0     
O18       O         1.0     0.41602059          0.55161388          0.28808             0.0     
O19       O         1.0     -0.0843686          0.55184293          0.29111175          0.0     
O20       O         1.0     0.16455151          0.25410798          0.34977994          0.0     
O21       O         1.0     0.6651685           0.2536564           0.3498682           0.0     
O22       O         1.0     0.16627764          -0.14907165         0.34698775          0.0     
O23       O         1.0     0.66353389          -0.14868362         0.34709421          0.0     
O24       O         1.0     0.41593744          0.55484137          0.40742115          0.0     
O25       O         1.0     -0.08390217         0.56435519          0.40475667          0.0     
O26       O         1.0     0.41449681          0.03985733          0.4367209           0.0     
O27       O         1.0     -0.08503912         0.03651843          0.43609719          0.0     
O28       O         1.0     0.14661639          0.34595777          0.4935022           0.0     
O29       O         1.0     0.68510271          0.34605923          0.49344242          0.0     
O30       O         1.0     0.15913304          0.73437282          0.50251685          0.0     
O31       O         1.0     0.67272865          0.73412833          0.50247313          0.0     
O32       O         1.0     0.41595644          0.08741737          0.55165199          0.0     
O33       O         1.0     -0.08449361         0.04386009          0.54998857          0.0     
V2        V         1.0     0.41591489          0.05480134          0.05820326          0.0     
V3        V         1.0     -0.08408511         0.05480134          0.05820326          0.0     
V4        V         1.0     0.16591489          0.55480134          0.05820326          0.0     
V5        V         1.0     0.66591489          0.55480134          0.05820326          0.0     
V6        V         1.0     0.16591489          0.05480134          0.20303793          0.0     
V7        V         1.0     0.66591489          0.05480134          0.20303793          0.0     
V8        V         1.0     0.41591489          0.55480134          0.20303793          0.0     
V9        V         1.0     -0.08408511         0.55480134          0.20303793          0.0     
V10       V         1.0     0.17888105          0.55199778          0.34682117          0.0     
V11       V         1.0     0.6537165           0.55193263          0.34674381          0.0     
V12       V         1.0     0.41605273          0.05072469          0.35151232          0.0     
V13       V         1.0     -0.08346891         0.05165572          0.34811421          0.0     
V14       V         1.0     -0.08386637         0.55458169          0.48307399          0.0     
V15       V         1.0     0.15967233          0.04578631          0.49719282          0.0     
V16       V         1.0     0.67334275          0.04582267          0.49714085          0.0     
Cr2       Cr        1.0     0.41587423          0.53004413          0.49652869          0.0     
