data_HCOVRu
_audit_creation_method        'pos2cif.py'        
_cell_length_a                5.64711014          
_cell_length_b                6.450147843790429   
_cell_length_c                22.267278180501698  
_cell_angle_alpha             90.0                
_cell_angle_beta              90.0                
_cell_angle_gamma             90.0                
_symmetry_space_group_H-M     'P1'                
_symmetry_Int_Tables_number   '1'                 
_symmetry_cell_setting        'triclinic'         
loop_                         
_symmetry_equiv_pos_as_xyz    
x,y,z                         

loop_                         
_atom_site_label              
_atom_site_type_symbol        
_atom_site_occupancy          
_atom_site_fract_x            
_atom_site_fract_y            
_atom_site_fract_z            
_atom_site_U_iso_or_equiv     
H1   H    1.0     0.41578789          0.28390868          0.56663123          0.0     
H2   H    1.0     0.4158088           0.6469554           0.59347365          0.0     
H3   H    1.0     0.57706201          0.43629378          0.62166331          0.0     
H4   H    1.0     0.25477882          0.43627264          0.62170378          0.0     
C5   C    1.0     0.41586741          0.47632944          0.59658163          0.0     
O6   O    1.0     0.41591489          0.55480134          0.0                 0.0     
O7   O    1.0     -0.08408511         0.55480134          0.0                 0.0     
O8   O    1.0     0.16591489          0.25573134          0.05820326          0.0     
O9   O    1.0     0.66591489          0.25573134          0.05820326          0.0     
O10  O    1.0     0.16591489          -0.14612866         0.05820326          0.0     
O11  O    1.0     0.66591489          -0.14612866         0.05820326          0.0     
O12  O    1.0     0.41591489          0.55480134          0.11640652          0.0     
O13  O    1.0     -0.08408511         0.55480134          0.11640652          0.0     
O14  O    1.0     0.41591489          0.05480134          0.14483467          0.0     
O15  O    1.0     -0.08408511         0.05480134          0.14483467          0.0     
O16  O    1.0     0.16591489          0.35387134          0.20303793          0.0     
O17  O    1.0     0.66591489          0.35387134          0.20303793          0.0     
O18  O    1.0     0.16591489          0.75573134          0.20303793          0.0     
O19  O    1.0     0.66591489          0.75573134          0.20303793          0.0     
O20  O    1.0     0.41591489          0.05480134          0.26124119          0.0     
O21  O    1.0     -0.08408511         0.05480134          0.26124119          0.0     
O22  O    1.0     0.41597813          0.5506606           0.28770444          0.0     
O23  O    1.0     -0.08395865         0.55181977          0.29050033          0.0     
O24  O    1.0     0.16708856          0.25441903          0.35052996          0.0     
O25  O    1.0     0.66541861          0.25450904          0.3505218           0.0     
O26  O    1.0     0.16801606          -0.14791341         0.34697682          0.0     
O27  O    1.0     0.66438223          -0.14801984         0.3469753           0.0     
O28  O    1.0     0.41604643          0.55992705          0.40714692          0.0     
O29  O    1.0     -0.08402089         0.56549079          0.40437044          0.0     
O30  O    1.0     0.41514776          0.03626739          0.43790819          0.0     
O31  O    1.0     -0.08431211         0.03495055          0.43709739          0.0     
O32  O    1.0     0.14222897          0.34190465          0.49359335          0.0     
O33  O    1.0     0.68915289          0.34219387          0.4935799           0.0     
O34  O    1.0     0.15273231          0.74094946          0.50545073          0.0     
O35  O    1.0     0.67874839          0.74064594          0.50547917          0.0     
O36  O    1.0     0.41628898          0.09455992          0.55176505          0.0     
O37  O    1.0     -0.08437969         0.04877269          0.55117933          0.0     
V38  V    1.0     0.41591489          0.05480134          0.05820326          0.0     
V39  V    1.0     -0.08408511         0.05480134          0.05820326          0.0     
V40  V    1.0     0.16591489          0.55480134          0.05820326          0.0     
V41  V    1.0     0.66591489          0.55480134          0.05820326          0.0     
V42  V    1.0     0.16591489          0.05480134          0.20303793          0.0     
V43  V    1.0     0.66591489          0.05480134          0.20303793          0.0     
V44  V    1.0     0.41591489          0.55480134          0.20303793          0.0     
V45  V    1.0     -0.08408511         0.55480134          0.20303793          0.0     
V46  V    1.0     0.41594651          0.05102924          0.35188063          0.0     
V47  V    1.0     -0.08438933         0.05270266          0.34985606          0.0     
V48  V    1.0     0.17742889          0.55313482          0.34584472          0.0     
V49  V    1.0     0.65357329          0.5531698           0.34599602          0.0     
V50  V    1.0     0.16178115          0.03866064          0.49824589          0.0     
V51  V    1.0     0.67342228          0.03892851          0.4996261           0.0     
V52  V    1.0     -0.08390012         0.54633099          0.48224708          0.0     
Ru53 Ru   1.0     0.4156761           0.53575845          0.49580291          0.0     
