data_HCOVOs
_audit_creation_method        'pos2cif.py by jyxu'
_cell_length_a                5.64711014          
_cell_length_b                6.450147843790429   
_cell_length_c                22.267278180501698  
_cell_angle_alpha             90.0                
_cell_angle_beta              90.0                
_cell_angle_gamma             90.0                
_symmetry_space_group_H-M     'P1'                
_symmetry_Int_Tables_number   '1'                 
_symmetry_cell_setting        'triclinic'         
loop_                         
_symmetry_equiv_pos_as_xyz    
x,y,z                         

loop_                         
_atom_site_label              
_atom_site_type_symbol        
_atom_site_occupancy          
_atom_site_fract_x            
_atom_site_fract_y            
_atom_site_fract_z            
_atom_site_U_iso_or_equiv     
H2        H         1.0     0.41621797          0.29174798          0.56816721          0.0     
H3        H         1.0     0.41643796          0.64994578          0.59491762          0.0     
H4        H         1.0     0.57745619          0.44003883          0.62273377          0.0     
H5        H         1.0     0.25551194          0.44003156          0.62266332          0.0     
C2        C         1.0     0.41658817          0.47888371          0.59736022          0.0     
O2        O         1.0     0.41591489          0.55480134          0.0                 0.0     
O3        O         1.0     -0.08408511         0.55480134          0.0                 0.0     
O4        O         1.0     0.16591489          0.25573134          0.05820326          0.0     
O5        O         1.0     0.66591489          0.25573134          0.05820326          0.0     
O6        O         1.0     0.16591489          -0.14612866         0.05820326          0.0     
O7        O         1.0     0.66591489          -0.14612866         0.05820326          0.0     
O8        O         1.0     0.41591489          0.55480134          0.11640652          0.0     
O9        O         1.0     -0.08408511         0.55480134          0.11640652          0.0     
O10       O         1.0     0.41591489          0.05480134          0.14483467          0.0     
O11       O         1.0     -0.08408511         0.05480134          0.14483467          0.0     
O12       O         1.0     0.16591489          0.35387134          0.20303793          0.0     
O13       O         1.0     0.66591489          0.35387134          0.20303793          0.0     
O14       O         1.0     0.16591489          -0.24426866         0.20303793          0.0     
O15       O         1.0     0.66591489          -0.24426866         0.20303793          0.0     
O16       O         1.0     0.41591489          0.05480134          0.26124119          0.0     
O17       O         1.0     -0.08408511         0.05480134          0.26124119          0.0     
O18       O         1.0     0.41593898          0.55131059          0.28777041          0.0     
O19       O         1.0     -0.08399746         0.5523971           0.29049579          0.0     
O20       O         1.0     0.16561268          0.25567571          0.35076639          0.0     
O21       O         1.0     0.66325411          0.25537159          0.35080544          0.0     
O22       O         1.0     0.16663893          -0.14748777         0.34729861          0.0     
O23       O         1.0     0.66259244          -0.14720948         0.34735892          0.0     
O24       O         1.0     0.41544964          0.5613              0.40787739          0.0     
O25       O         1.0     -0.08405483         0.56664407          0.4043983           0.0     
O26       O         1.0     0.4146464           0.03817594          0.43861999          0.0     
O27       O         1.0     -0.08508913         0.03618657          0.43756995          0.0     
O28       O         1.0     0.14313971          0.34475412          0.49440239          0.0     
O29       O         1.0     0.68852798          0.34292797          0.49412717          0.0     
O30       O         1.0     0.15435914          0.74209028          0.50668263          0.0     
O31       O         1.0     0.67751572          0.74348407          0.50676267          0.0     
O32       O         1.0     0.41541091          0.0963026           0.55267755          0.0     
O33       O         1.0     -0.08413878         0.05086793          0.55194128          0.0     
V2        V         1.0     0.41591489          0.05480134          0.05820326          0.0     
V3        V         1.0     -0.08408511         0.05480134          0.05820326          0.0     
V4        V         1.0     0.16591489          0.55480134          0.05820326          0.0     
V5        V         1.0     0.66591489          0.55480134          0.05820326          0.0     
V6        V         1.0     0.16591489          0.05480134          0.20303793          0.0     
V7        V         1.0     0.66591489          0.05480134          0.20303793          0.0     
V8        V         1.0     0.41591489          0.55480134          0.20303793          0.0     
V9        V         1.0     -0.08408511         0.55480134          0.20303793          0.0     
V10       V         1.0     0.41701709          0.0519361           0.35229358          0.0     
V11       V         1.0     -0.08225901         0.05305011          0.35085345          0.0     
V12       V         1.0     0.17814599          0.55388832          0.34565619          0.0     
V13       V         1.0     0.65675792          0.55379052          0.34529462          0.0     
V14       V         1.0     0.16053743          0.04268608          0.50027281          0.0     
V15       V         1.0     0.67151497          0.04262567          0.49936749          0.0     
V16       V         1.0     -0.08619987         0.55047711          0.48202492          0.0     
Os2       Os        1.0     0.41682039          0.53782247          0.4957774           0.0     
