data_HCOVTi
_audit_creation_method        'pos2cif.py'        
_cell_length_a                5.64711014          
_cell_length_b                6.450147843790429   
_cell_length_c                22.267278180501698  
_cell_angle_alpha             90.0                
_cell_angle_beta              90.0                
_cell_angle_gamma             90.0                
_symmetry_space_group_H-M     'P1'                
_symmetry_Int_Tables_number   '1'                 
_symmetry_cell_setting        'triclinic'         
loop_                         
_symmetry_equiv_pos_as_xyz    
x,y,z                         

loop_                         
_atom_site_label              
_atom_site_type_symbol        
_atom_site_occupancy          
_atom_site_fract_x            
_atom_site_fract_y            
_atom_site_fract_z            
_atom_site_U_iso_or_equiv     
H1   H    1.0     0.41739577          0.25411841          0.56805324          0.0     
H2   H    1.0     0.4185281           0.64453324          0.59535652          0.0     
H3   H    1.0     0.57811659          0.43158881          0.6242404           0.0     
H4   H    1.0     0.25771792          0.43153583          0.62370754          0.0     
C5   C    1.0     0.41863541          0.47306004          0.59874991          0.0     
O6   O    1.0     0.41591489          0.55480134          0.0                 0.0     
O7   O    1.0     0.91591489          0.55480134          0.0                 0.0     
O8   O    1.0     0.16591489          0.25573134          0.05820326          0.0     
O9   O    1.0     0.66591489          0.25573134          0.05820326          0.0     
O10  O    1.0     0.16591489          -0.14612866         0.05820326          0.0     
O11  O    1.0     0.66591489          -0.14612866         0.05820326          0.0     
O12  O    1.0     0.41591489          0.55480134          0.11640652          0.0     
O13  O    1.0     0.91591489          0.55480134          0.11640652          0.0     
O14  O    1.0     0.41591489          0.05480134          0.14483467          0.0     
O15  O    1.0     0.91591489          0.05480134          0.14483467          0.0     
O16  O    1.0     0.16591489          0.35387134          0.20303793          0.0     
O17  O    1.0     0.66591489          0.35387134          0.20303793          0.0     
O18  O    1.0     0.16591489          -0.24426866         0.20303793          0.0     
O19  O    1.0     0.66591489          -0.24426866         0.20303793          0.0     
O20  O    1.0     0.41591489          0.05480134          0.26124119          0.0     
O21  O    1.0     0.91591489          0.05480134          0.26124119          0.0     
O22  O    1.0     0.41413879          0.55270493          0.28804763          0.0     
O23  O    1.0     -0.085148           0.55274751          0.29089164          0.0     
O24  O    1.0     0.16910926          0.25518757          0.34970012          0.0     
O25  O    1.0     0.6710633           0.25593773          0.34928801          0.0     
O26  O    1.0     0.17095787          -0.14823792         0.34760676          0.0     
O27  O    1.0     0.66918396          -0.14843583         0.34733485          0.0     
O28  O    1.0     0.41603491          0.55334163          0.4076949           0.0     
O29  O    1.0     -0.08507647         0.56566512          0.40558402          0.0     
O30  O    1.0     0.4275436           0.04480392          0.43520727          0.0     
O31  O    1.0     -0.07717431         0.04207486          0.43823842          0.0     
O32  O    1.0     0.15183528          0.35392968          0.49467903          0.0     
O33  O    1.0     0.68546929          0.35188344          0.49389499          0.0     
O34  O    1.0     0.16460431          0.74935584          0.5039344           0.0     
O35  O    1.0     0.67500677          0.74958192          0.50335475          0.0     
O36  O    1.0     0.41056975          0.09049031          0.5518709           0.0     
O37  O    1.0     -0.0878248          0.05725841          0.55410351          0.0     
V38  V    1.0     0.41591489          0.05480134          0.05820326          0.0     
V39  V    1.0     0.91591489          0.05480134          0.05820326          0.0     
V40  V    1.0     0.16591489          0.55480134          0.05820326          0.0     
V41  V    1.0     0.66591489          0.55480134          0.05820326          0.0     
V42  V    1.0     0.16591489          0.05480134          0.20303793          0.0     
V43  V    1.0     0.66591489          0.05480134          0.20303793          0.0     
V44  V    1.0     0.41591489          0.55480134          0.20303793          0.0     
V45  V    1.0     0.91591489          0.55480134          0.20303793          0.0     
V46  V    1.0     0.40636976          0.05230341          0.34849983          0.0     
V47  V    1.0     -0.0922774          0.05325755          0.34766831          0.0     
V48  V    1.0     0.16999496          0.55287013          0.34561539          0.0     
V49  V    1.0     0.64833623          0.5535938           0.34658148          0.0     
V50  V    1.0     0.13384432          0.05224758          0.50377173          0.0     
V51  V    1.0     0.65225048          0.05158163          0.49104633          0.0     
V52  V    1.0     -0.08601869         0.55476842          0.48305266          0.0     
Ti53 Ti   1.0     0.41504357          0.54797554          0.49758468          0.0     
