data_HCOIrGe
_audit_creation_method        'pos2cif.py'        
_cell_length_a                6.36215693          
_cell_length_b                6.384482994809508   
_cell_length_c                22.021598412435427  
_cell_angle_alpha             90.0                
_cell_angle_beta              90.0                
_cell_angle_gamma             90.0                
_symmetry_space_group_H-M     'P1'                
_symmetry_Int_Tables_number   '1'                 
_symmetry_cell_setting        'triclinic'         
loop_                         
_symmetry_equiv_pos_as_xyz    
x,y,z                         

loop_                         
_atom_site_label              
_atom_site_type_symbol        
_atom_site_occupancy          
_atom_site_fract_x            
_atom_site_fract_y            
_atom_site_fract_z            
_atom_site_U_iso_or_equiv     
H1   H    1.0     0.58864239          0.2734852           0.57673094          0.0     
H2   H    1.0     0.58700813          0.62073839          0.60317138          0.0     
H3   H    1.0     0.43946533          0.41129607          0.64183287          0.0     
H4   H    1.0     0.73322006          0.41217756          0.64267923          0.0     
C5   C    1.0     0.58693994          0.46090419          0.62092584          0.0     
O6   O    1.0     1.08911189          0.64454359          0.0                 0.0     
O7   O    1.0     0.58911189          0.64454359          0.0                 0.0     
O8   O    1.0     0.33911189          -0.04692641         0.05551082          0.0     
O9   O    1.0     0.83911189          -0.04692641         0.05551082          0.0     
O10  O    1.0     0.33911189          0.33601359          0.05551082          0.0     
O11  O    1.0     0.83911189          0.33601359          0.05551082          0.0     
O12  O    1.0     1.08911189          0.64454359          0.11102164          0.0     
O13  O    1.0     0.58911189          0.64454359          0.11102164          0.0     
O14  O    1.0     1.08911189          0.14454359          0.14495957          0.0     
O15  O    1.0     0.58911189          0.14454359          0.14495957          0.0     
O16  O    1.0     0.33911189          -0.16398641         0.20047039          0.0     
O17  O    1.0     0.83911189          -0.16398641         0.20047039          0.0     
O18  O    1.0     0.33911189          0.45307359          0.20047039          0.0     
O19  O    1.0     0.83911189          0.45307359          0.20047039          0.0     
O20  O    1.0     1.08911189          0.14454359          0.25598121          0.0     
O21  O    1.0     0.58911189          0.14454359          0.25598121          0.0     
O22  O    1.0     1.08920876          0.63999828          0.28965152          0.0     
O23  O    1.0     0.5892255           0.64033421          0.28950469          0.0     
O24  O    1.0     0.33956403          -0.05276863         0.3452541           0.0     
O25  O    1.0     0.83882216          -0.05276968         0.34524539          0.0     
O26  O    1.0     0.33929902          0.33031915          0.34646307          0.0     
O27  O    1.0     0.8390544           0.33030488          0.34646686          0.0     
O28  O    1.0     0.0892209           0.64030036          0.40035556          0.0     
O29  O    1.0     0.58923454          0.6394675           0.40091369          0.0     
O30  O    1.0     0.08897517          0.12883261          0.43503912          0.0     
O31  O    1.0     0.58902176          0.13199081          0.43607771          0.0     
O32  O    1.0     0.34646534          0.81827141          0.49669141          0.0     
O33  O    1.0     0.83121618          0.81824478          0.49685127          0.0     
O34  O    1.0     0.34627271          0.4454436           0.49302682          0.0     
O35  O    1.0     0.83139108          0.44543677          0.49314336          0.0     
O36  O    1.0     0.08904832          0.13738707          0.54534139          0.0     
O37  O    1.0     0.58894396          0.13116076          0.54908546          0.0     
Ir38 Ir   1.0     0.33911189          0.64454359          0.05551082          0.0     
Ir39 Ir   1.0     0.83911189          0.64454359          0.05551082          0.0     
Ir40 Ir   1.0     1.08911189          0.14454359          0.05551082          0.0     
Ir41 Ir   1.0     0.58911189          0.14454359          0.05551082          0.0     
Ir42 Ir   1.0     1.08911189          0.64454359          0.20047039          0.0     
Ir43 Ir   1.0     0.58911189          0.64454359          0.20047039          0.0     
Ir44 Ir   1.0     0.33911189          0.14454359          0.20047039          0.0     
Ir45 Ir   1.0     0.83911189          0.14454359          0.20047039          0.0     
Ir46 Ir   1.0     0.33885658          0.638856            0.34482358          0.0     
Ir47 Ir   1.0     0.83958857          0.63885533          0.34482252          0.0     
Ir48 Ir   1.0     1.08914697          0.13834116          0.34578826          0.0     
Ir49 Ir   1.0     0.58915358          0.13867089          0.34619041          0.0     
Ir50 Ir   1.0     0.08868615          0.63270574          0.48824913          0.0     
Ir51 Ir   1.0     0.33660281          0.1331747           0.49148649          0.0     
Ir52 Ir   1.0     0.84130227          0.13317566          0.49151178          0.0     
Ge53 Ge   1.0     0.58874767          0.63347113          0.48382978          0.0     
