data_HCOIrTi
_audit_creation_method        'pos2cif.py'        
_cell_length_a                6.36215693          
_cell_length_b                6.384482994809508   
_cell_length_c                22.021598412435427  
_cell_angle_alpha             90.0                
_cell_angle_beta              90.0                
_cell_angle_gamma             90.0                
_symmetry_space_group_H-M     'P1'                
_symmetry_Int_Tables_number   '1'                 
_symmetry_cell_setting        'triclinic'         
loop_                         
_symmetry_equiv_pos_as_xyz    
x,y,z                         

loop_                         
_atom_site_label              
_atom_site_type_symbol        
_atom_site_occupancy          
_atom_site_fract_x            
_atom_site_fract_y            
_atom_site_fract_z            
_atom_site_U_iso_or_equiv     
H1   H    1.0     -0.58924612         -0.67498206         0.56481755          0.0     
H2   H    1.0     -0.58901561         -0.30300509         0.59274548          0.0     
H3   H    1.0     -0.44715776         -0.51757965         0.62259542          0.0     
H4   H    1.0     -0.73111974         -0.51738835         0.62270081          0.0     
C5   C    1.0     -0.58924826         -0.47624321         0.5968738           0.0     
O6   O    1.0     -1.08911189         -0.35545641         0.0                 0.0     
O7   O    1.0     -0.58911189         -0.35545641         0.0                 0.0     
O8   O    1.0     -0.33911189         -1.04692641         0.05551082          0.0     
O9   O    1.0     -0.83911189         -1.04692641         0.05551082          0.0     
O10  O    1.0     -0.33911189         -0.66398641         0.05551082          0.0     
O11  O    1.0     -0.83911189         -0.66398641         0.05551082          0.0     
O12  O    1.0     -1.08911189         -0.35545641         0.11102164          0.0     
O13  O    1.0     -0.58911189         -0.35545641         0.11102164          0.0     
O14  O    1.0     -1.08911189         -0.85545641         0.14495957          0.0     
O15  O    1.0     -0.58911189         -0.85545641         0.14495957          0.0     
O16  O    1.0     -0.33911189         -1.16398641         0.20047039          0.0     
O17  O    1.0     -0.83911189         -1.16398641         0.20047039          0.0     
O18  O    1.0     -0.33911189         -0.54692641         0.20047039          0.0     
O19  O    1.0     -0.83911189         -0.54692641         0.20047039          0.0     
O20  O    1.0     -1.08911189         -0.85545641         0.25598121          0.0     
O21  O    1.0     -0.58911189         -0.85545641         0.25598121          0.0     
O22  O    1.0     -0.08927325         -0.364505           0.29000811          0.0     
O23  O    1.0     -0.58926899         -0.36511452         0.28984553          0.0     
O24  O    1.0     -0.34070065         -1.05744752         0.34466646          0.0     
O25  O    1.0     -0.83777781         -1.05744793         0.34466147          0.0     
O26  O    1.0     -0.33920331         -0.67427531         0.34746173          0.0     
O27  O    1.0     -0.83927744         -0.6742782          0.3474618           0.0     
O28  O    1.0     -1.08926143         -0.35017885         0.40011739          0.0     
O29  O    1.0     -0.58928045         -0.36504888         0.40313339          0.0     
O30  O    1.0     -1.08927406         -0.88654842         0.43511766          0.0     
O31  O    1.0     -0.58924492         -0.87805466         0.43590939          0.0     
O32  O    1.0     -0.34662497         -0.18431205         0.49820818          0.0     
O33  O    1.0     -0.83170795         -0.18431289         0.49818029          0.0     
O34  O    1.0     -0.33958952         -0.56678585         0.48759415          0.0     
O35  O    1.0     -0.83884355         -0.56680982         0.48759402          0.0     
O36  O    1.0     -1.08926666         -0.86431396         0.54533147          0.0     
O37  O    1.0     -0.58925083         -0.84965118         0.54811231          0.0     
Ir38 Ir   1.0     -0.33911189         -0.35545641         0.05551082          0.0     
Ir39 Ir   1.0     -0.83911189         -0.35545641         0.05551082          0.0     
Ir40 Ir   1.0     -1.08911189         -0.85545641         0.05551082          0.0     
Ir41 Ir   1.0     -0.58911189         -0.85545641         0.05551082          0.0     
Ir42 Ir   1.0     -1.08911189         -0.35545641         0.20047039          0.0     
Ir43 Ir   1.0     -0.58911189         -0.35545641         0.20047039          0.0     
Ir44 Ir   1.0     -0.33911189         -0.85545641         0.20047039          0.0     
Ir45 Ir   1.0     -0.83911189         -0.85545641         0.20047039          0.0     
Ir46 Ir   1.0     -0.34130281         -0.36583416         0.34564316          0.0     
Ir47 Ir   1.0     -0.83723632         -0.36583773         0.34564071          0.0     
Ir48 Ir   1.0     -0.08922058         -0.86704182         0.34595133          0.0     
Ir49 Ir   1.0     -0.58922071         -0.86596589         0.34633664          0.0     
Ir50 Ir   1.0     -1.08916203         -0.37381284         0.48748626          0.0     
Ir51 Ir   1.0     -0.33547452         -0.87405495         0.49140105          0.0     
Ir52 Ir   1.0     -0.84301441         -0.87405543         0.49140083          0.0     
Ti53 Ti   1.0     -0.58916322         -0.38112226         0.49254048          0.0     
