data_HCOVTi
_audit_creation_method        'pos2cif.py'        
_cell_length_a                5.64711014          
_cell_length_b                6.450147843790429   
_cell_length_c                22.267278180501698  
_cell_angle_alpha             90.0                
_cell_angle_beta              90.0                
_cell_angle_gamma             90.0                
_symmetry_space_group_H-M     'P1'                
_symmetry_Int_Tables_number   '1'                 
_symmetry_cell_setting        'triclinic'         
loop_                         
_symmetry_equiv_pos_as_xyz    
x,y,z                         

loop_                         
_atom_site_label              
_atom_site_type_symbol        
_atom_site_occupancy          
_atom_site_fract_x            
_atom_site_fract_y            
_atom_site_fract_z            
_atom_site_U_iso_or_equiv     
H1   H    1.0     0.41614236          0.18373189          0.5803326           0.0     
H2   H    1.0     0.41690122          0.56744786          0.60890761          0.0     
H3   H    1.0     0.58325726          0.35179932          0.64528983          0.0     
H4   H    1.0     0.25053909          0.35215604          0.64544337          0.0     
C5   C    1.0     0.41684689          0.41085757          0.62737583          0.0     
O6   O    1.0     0.41591489          0.55480134          0.0                 0.0     
O7   O    1.0     0.91591489          0.55480134          0.0                 0.0     
O8   O    1.0     0.16591489          0.25573134          0.05820326          0.0     
O9   O    1.0     0.66591489          0.25573134          0.05820326          0.0     
O10  O    1.0     0.16591489          -0.14612866         0.05820326          0.0     
O11  O    1.0     0.66591489          -0.14612866         0.05820326          0.0     
O12  O    1.0     0.41591489          0.55480134          0.11640652          0.0     
O13  O    1.0     0.91591489          0.55480134          0.11640652          0.0     
O14  O    1.0     0.41591489          0.05480134          0.14483467          0.0     
O15  O    1.0     0.91591489          0.05480134          0.14483467          0.0     
O16  O    1.0     0.16591489          0.35387134          0.20303793          0.0     
O17  O    1.0     0.66591489          0.35387134          0.20303793          0.0     
O18  O    1.0     0.16591489          -0.24426866         0.20303793          0.0     
O19  O    1.0     0.66591489          -0.24426866         0.20303793          0.0     
O20  O    1.0     0.41591489          0.05480134          0.26124119          0.0     
O21  O    1.0     0.91591489          0.05480134          0.26124119          0.0     
O22  O    1.0     0.41704297          0.54980725          0.2894237           0.0     
O23  O    1.0     -0.08297522         0.54972186          0.28853652          0.0     
O24  O    1.0     0.16217739          0.25137748          0.34993332          0.0     
O25  O    1.0     0.66381002          0.25150417          0.35005042          0.0     
O26  O    1.0     0.1624567           -0.15255081         0.34796191          0.0     
O27  O    1.0     0.66358005          -0.15261906         0.34816448          0.0     
O28  O    1.0     0.41665375          0.55004369          0.40562023          0.0     
O29  O    1.0     -0.08337184         0.55083631          0.40832132          0.0     
O30  O    1.0     0.41348894          0.03890425          0.43857497          0.0     
O31  O    1.0     -0.08652148         0.0385803           0.43770887          0.0     
O32  O    1.0     0.15931946          0.34341088          0.50178136          0.0     
O33  O    1.0     0.67236154          0.34332366          0.50167813          0.0     
O34  O    1.0     0.16205513          0.73195662          0.50531301          0.0     
O35  O    1.0     0.66951458          0.7322831           0.50514139          0.0     
O36  O    1.0     0.41515028          0.0489197           0.55641088          0.0     
O37  O    1.0     -0.08488843         0.0412089           0.55169596          0.0     
V38  V    1.0     0.41591489          0.05480134          0.05820326          0.0     
V39  V    1.0     0.91591489          0.05480134          0.05820326          0.0     
V40  V    1.0     0.16591489          0.55480134          0.05820326          0.0     
V41  V    1.0     0.66591489          0.55480134          0.05820326          0.0     
V42  V    1.0     0.16591489          0.05480134          0.20303793          0.0     
V43  V    1.0     0.66591489          0.05480134          0.20303793          0.0     
V44  V    1.0     0.41591489          0.55480134          0.20303793          0.0     
V45  V    1.0     0.91591489          0.55480134          0.20303793          0.0     
V46  V    1.0     0.42063332          0.04917523          0.35125239          0.0     
V47  V    1.0     -0.08009908         0.04973079          0.34836062          0.0     
V48  V    1.0     0.1669818           0.55018857          0.34502042          0.0     
V49  V    1.0     0.67185412          0.54984852          0.34493777          0.0     
V50  V    1.0     0.15634541          0.03708377          0.49844789          0.0     
V51  V    1.0     0.67427116          0.0366887           0.49757053          0.0     
V52  V    1.0     -0.0843092          0.53990997          0.48677185          0.0     
Ti53 Ti   1.0     0.41565759          0.53837472          0.48745015          0.0     
