data_HCOVOs
_audit_creation_method        'pos2cif.py'        
_cell_length_a                5.64711014          
_cell_length_b                6.450147843790429   
_cell_length_c                22.267278180501698  
_cell_angle_alpha             90.0                
_cell_angle_beta              90.0                
_cell_angle_gamma             90.0                
_symmetry_space_group_H-M     'P1'                
_symmetry_Int_Tables_number   '1'                 
_symmetry_cell_setting        'triclinic'         
loop_                         
_symmetry_equiv_pos_as_xyz    
x,y,z                         

loop_                         
_atom_site_label              
_atom_site_type_symbol        
_atom_site_occupancy          
_atom_site_fract_x            
_atom_site_fract_y            
_atom_site_fract_z            
_atom_site_U_iso_or_equiv     
H1   H    1.0     0.42242584          0.2638115           0.56423133          0.0     
H2   H    1.0     0.41809579          0.60909784          0.59934609          0.0     
H3   H    1.0     0.58354127          0.39079471          0.62221281          0.0     
H4   H    1.0     0.26322205          0.38532724          0.6202667           0.0     
C5   C    1.0     0.42463859          0.43865396          0.59731401          0.0     
O6   O    1.0     0.41591489          0.55480134          0.0                 0.0     
O7   O    1.0     -0.08408511         0.55480134          0.0                 0.0     
O8   O    1.0     0.16591489          0.25573134          0.05820326          0.0     
O9   O    1.0     0.66591489          0.25573134          0.05820326          0.0     
O10  O    1.0     0.16591489          -0.14612866         0.05820326          0.0     
O11  O    1.0     0.66591489          -0.14612866         0.05820326          0.0     
O12  O    1.0     0.41591489          0.55480134          0.11640652          0.0     
O13  O    1.0     -0.08408511         0.55480134          0.11640652          0.0     
O14  O    1.0     0.41591489          0.05480134          0.14483467          0.0     
O15  O    1.0     -0.08408511         0.05480134          0.14483467          0.0     
O16  O    1.0     0.16591489          0.35387134          0.20303793          0.0     
O17  O    1.0     0.66591489          0.35387134          0.20303793          0.0     
O18  O    1.0     0.16591489          -0.24426866         0.20303793          0.0     
O19  O    1.0     0.66591489          -0.24426866         0.20303793          0.0     
O20  O    1.0     0.41591489          0.05480134          0.26124119          0.0     
O21  O    1.0     -0.08408511         0.05480134          0.26124119          0.0     
O22  O    1.0     0.41498598          0.54196548          0.28858406          0.0     
O23  O    1.0     -0.0835078          0.54265946          0.29031019          0.0     
O24  O    1.0     0.16132757          0.24582011          0.35209933          0.0     
O25  O    1.0     0.66308795          0.24492161          0.35183841          0.0     
O26  O    1.0     0.16180895          -0.15857308         0.34533777          0.0     
O27  O    1.0     0.6627449           -0.15756034         0.34527517          0.0     
O28  O    1.0     0.41670652          0.55240538          0.40812643          0.0     
O29  O    1.0     -0.0895403          0.55722149          0.40603929          0.0     
O30  O    1.0     0.40318869          0.01073326          0.43453452          0.0     
O31  O    1.0     -0.08452638         0.00811738          0.43882399          0.0     
O32  O    1.0     0.14948063          0.32748336          0.49072996          0.0     
O33  O    1.0     0.68697373          0.30363325          0.48836073          0.0     
O34  O    1.0     0.15925339          0.71101332          0.50421237          0.0     
O35  O    1.0     0.67806616          0.72805672          0.50902891          0.0     
O36  O    1.0     0.42776125          0.0652025           0.54970576          0.0     
O37  O    1.0     -0.06727416         0.0337886           0.55506301          0.0     
V38  V    1.0     0.41591489          0.05480134          0.05820326          0.0     
V39  V    1.0     -0.08408511         0.05480134          0.05820326          0.0     
V40  V    1.0     0.16591489          0.55480134          0.05820326          0.0     
V41  V    1.0     0.66591489          0.55480134          0.05820326          0.0     
V42  V    1.0     0.16591489          0.05480134          0.20303793          0.0     
V43  V    1.0     0.66591489          0.05480134          0.20303793          0.0     
V44  V    1.0     0.41591489          0.55480134          0.20303793          0.0     
V45  V    1.0     -0.08408511         0.55480134          0.20303793          0.0     
V46  V    1.0     0.42487273          0.04263686          0.3483228           0.0     
V47  V    1.0     -0.07538044         0.04146043          0.34863024          0.0     
V48  V    1.0     0.18341141          0.54386551          0.34818034          0.0     
V49  V    1.0     0.66545779          0.54371909          0.34399364          0.0     
V50  V    1.0     0.18360267          0.01309443          0.49081948          0.0     
V51  V    1.0     0.70372368          0.01761255          0.5064491           0.0     
V52  V    1.0     -0.10297887         0.52321876          0.48319553          0.0     
Os53 Os   1.0     0.43139378          0.51257863          0.49586544          0.0     
