data_HCOVGe
_audit_creation_method        'pos2cif.py'        
_cell_length_a                5.64711014          
_cell_length_b                6.450147843790429   
_cell_length_c                22.267278180501698  
_cell_angle_alpha             90.0                
_cell_angle_beta              90.0                
_cell_angle_gamma             90.0                
_symmetry_space_group_H-M     'P1'                
_symmetry_Int_Tables_number   '1'                 
_symmetry_cell_setting        'triclinic'         
loop_                         
_symmetry_equiv_pos_as_xyz    
x,y,z                         

loop_                         
_atom_site_label              
_atom_site_type_symbol        
_atom_site_occupancy          
_atom_site_fract_x            
_atom_site_fract_y            
_atom_site_fract_z            
_atom_site_U_iso_or_equiv     
H1   H    1.0     0.41535208          0.2052413           0.58130169          0.0     
H2   H    1.0     0.41537872          0.56825086          0.60888195          0.0     
H3   H    1.0     0.58130301          0.35922365          0.64779694          0.0     
H4   H    1.0     0.24937146          0.35914646          0.64772582          0.0     
C5   C    1.0     0.41538608          0.4128211           0.62817414          0.0     
O6   O    1.0     0.41591489          0.55480134          0.0                 0.0     
O7   O    1.0     0.91591489          0.55480134          0.0                 0.0     
O8   O    1.0     0.16591489          0.25573134          0.05820326          0.0     
O9   O    1.0     0.66591489          0.25573134          0.05820326          0.0     
O10  O    1.0     0.16591489          -0.14612866         0.05820326          0.0     
O11  O    1.0     0.66591489          -0.14612866         0.05820326          0.0     
O12  O    1.0     0.41591489          0.55480134          0.11640652          0.0     
O13  O    1.0     0.91591489          0.55480134          0.11640652          0.0     
O14  O    1.0     0.41591489          0.05480134          0.14483467          0.0     
O15  O    1.0     0.91591489          0.05480134          0.14483467          0.0     
O16  O    1.0     0.16591489          0.35387134          0.20303793          0.0     
O17  O    1.0     0.66591489          0.35387134          0.20303793          0.0     
O18  O    1.0     0.16591489          -0.24426866         0.20303793          0.0     
O19  O    1.0     0.66591489          -0.24426866         0.20303793          0.0     
O20  O    1.0     0.41591489          0.05480134          0.26124119          0.0     
O21  O    1.0     0.91591489          0.05480134          0.26124119          0.0     
O22  O    1.0     0.4163816           0.55510196          0.28987438          0.0     
O23  O    1.0     0.91641231          0.55490507          0.28869303          0.0     
O24  O    1.0     0.16357207          0.25737456          0.34910157          0.0     
O25  O    1.0     0.66672443          0.25746302          0.34916532          0.0     
O26  O    1.0     0.16356036          -0.14592863         0.34856799          0.0     
O27  O    1.0     0.66638204          -0.14594408         0.34864309          0.0     
O28  O    1.0     0.41629824          0.5564295           0.40549018          0.0     
O29  O    1.0     -0.08373538         0.55863427          0.40780997          0.0     
O30  O    1.0     0.41436876          0.05250589          0.43792711          0.0     
O31  O    1.0     -0.08505444         0.05322725          0.43767456          0.0     
O32  O    1.0     0.16586372          0.36347117          0.50113486          0.0     
O33  O    1.0     0.66606938          0.36360601          0.50117182          0.0     
O34  O    1.0     0.16930675          0.74280168          0.50374594          0.0     
O35  O    1.0     0.66269216          0.7427296           0.50372386          0.0     
O36  O    1.0     0.41613988          0.06868209          0.55583323          0.0     
O37  O    1.0     -0.08428401         0.05407794          0.55041755          0.0     
V38  V    1.0     0.41591489          0.05480134          0.05820326          0.0     
V39  V    1.0     0.91591489          0.05480134          0.05820326          0.0     
V40  V    1.0     0.16591489          0.55480134          0.05820326          0.0     
V41  V    1.0     0.66591489          0.55480134          0.05820326          0.0     
V42  V    1.0     0.16591489          0.05480134          0.20303793          0.0     
V43  V    1.0     0.66591489          0.05480134          0.20303793          0.0     
V44  V    1.0     0.41591489          0.55480134          0.20303793          0.0     
V45  V    1.0     0.91591489          0.55480134          0.20303793          0.0     
V46  V    1.0     0.41836619          0.05626246          0.35054107          0.0     
V47  V    1.0     -0.08216251         0.0558893           0.34810444          0.0     
V48  V    1.0     0.16578508          0.5567213           0.34545107          0.0     
V49  V    1.0     0.66884217          0.55663107          0.34535516          0.0     
V50  V    1.0     0.16271603          0.05384045          0.49709962          0.0     
V51  V    1.0     0.67322392          0.05406838          0.49826531          0.0     
V52  V    1.0     -0.08393307         0.55548795          0.48574974          0.0     
Ge53 Ge   1.0     0.41595029          0.55345171          0.48734393          0.0     
