data_HCOV
_audit_creation_method        'pos2cif.py by jyxu'
_cell_length_a                5.64711014          
_cell_length_b                6.45014784          
_cell_length_c                22.26727818         
_cell_angle_alpha             90.0                
_cell_angle_beta              90.0                
_cell_angle_gamma             90.0                
_symmetry_space_group_H-M     'P1'                
_symmetry_Int_Tables_number   '1'                 
_symmetry_cell_setting        'triclinic'         
loop_                         
_symmetry_equiv_pos_as_xyz    
x,y,z                         

loop_                         
_atom_site_label              
_atom_site_type_symbol        
_atom_site_occupancy          
_atom_site_fract_x            
_atom_site_fract_y            
_atom_site_fract_z            
_atom_site_U_iso_or_equiv     
H1        H         1.0     0.42096374          0.19621596          0.57954138          0.0     
H2        H         1.0     0.41912263          0.56978881          0.60677094          0.0     
H3        H         1.0     0.24510391          0.35793803          0.64172325          0.0     
H4        H         1.0     0.57604118          0.35730836          0.64624409          0.0     
C1        C         1.0     0.41492308          0.41193451          0.62438008          0.0     
O1        O         1.0     0.41591             0.5548              0.0                 0.0     
O2        O         1.0     -0.08409            0.5548              0.0                 0.0     
O3        O         1.0     0.16591             0.25573             0.0582              0.0     
O4        O         1.0     0.66591             0.25573             0.0582              0.0     
O5        O         1.0     0.16591             -0.14613            0.0582              0.0     
O6        O         1.0     0.66591             -0.14613            0.0582              0.0     
O7        O         1.0     0.41591             0.5548              0.11641             0.0     
O8        O         1.0     -0.08409            0.5548              0.11641             0.0     
O9        O         1.0     -0.08409            0.0548              0.14483             0.0     
O10       O         1.0     0.41591             0.0548              0.14483             0.0     
O11       O         1.0     0.16591             0.35387             0.20304             0.0     
O12       O         1.0     0.66591             0.35387             0.20304             0.0     
O13       O         1.0     0.16591             -0.24427            0.20304             0.0     
O14       O         1.0     0.66591             -0.24427            0.20304             0.0     
O15       O         1.0     0.41591             0.0548              0.26124             0.0     
O16       O         1.0     -0.08409            0.0548              0.26124             0.0     
O17       O         1.0     0.41431312          0.54949849          0.28940713          0.0     
O18       O         1.0     -0.08583455         0.54960918          0.28882961          0.0     
O19       O         1.0     0.16797071          0.2520963           0.35020039          0.0     
O20       O         1.0     0.66977161          0.25150489          0.35013951          0.0     
O21       O         1.0     0.1687582           -0.15354002         0.34813266          0.0     
O22       O         1.0     0.66921321          -0.152795           0.34813559          0.0     
O23       O         1.0     0.41458905          0.55014484          0.40802406          0.0     
O24       O         1.0     -0.08530323         0.55259931          0.40788087          0.0     
O25       O         1.0     0.42616638          0.04036262          0.43697232          0.0     
O26       O         1.0     -0.07804714         0.03859133          0.43898577          0.0     
O27       O         1.0     0.16385413          0.34724879          0.50113777          0.0     
O28       O         1.0     0.6683452           0.34666977          0.50068918          0.0     
O29       O         1.0     0.16863639          0.73401804          0.50526265          0.0     
O30       O         1.0     0.66371958          0.73409034          0.50489817          0.0     
O31       O         1.0     0.41205631          0.05559374          0.55634775          0.0     
O32       O         1.0     -0.08693397         0.04385355          0.55492207          0.0     
V1        V         1.0     0.41591             0.0548              0.0582              0.0     
V2        V         1.0     -0.08409            0.0548              0.0582              0.0     
V3        V         1.0     0.16591             0.5548              0.0582              0.0     
V4        V         1.0     0.66591             0.5548              0.0582              0.0     
V5        V         1.0     0.16591             0.0548              0.20304             0.0     
V6        V         1.0     0.66591             0.0548              0.20304             0.0     
V7        V         1.0     0.41591             0.5548              0.20304             0.0     
V8        V         1.0     -0.08409            0.5548              0.20304             0.0     
V9        V         1.0     0.15899877          0.54911646          0.34500726          0.0     
V10       V         1.0     0.66170749          0.54951398          0.34490895          0.0     
V11       V         1.0     -0.09174213         0.04930689          0.34980998          0.0     
V12       V         1.0     0.40616846          0.04870706          0.34859571          0.0     
V13       V         1.0     0.41427851          0.54184392          0.48663434          0.0     
V14       V         1.0     -0.0855266          0.54350637          0.48606285          0.0     
V15       V         1.0     0.13744871          0.04171847          0.50478283          0.0     
V16       V         1.0     0.65158218          0.04117369          0.49285745          0.0     
