data_HOIrTi
_audit_creation_method        'pos2cif.py'        
_cell_length_a                6.36215693          
_cell_length_b                6.384482994809508   
_cell_length_c                22.021598412435427  
_cell_angle_alpha             90.0                
_cell_angle_beta              90.0                
_cell_angle_gamma             90.0                
_symmetry_space_group_H-M     'P1'                
_symmetry_Int_Tables_number   '1'                 
_symmetry_cell_setting        'triclinic'         
loop_                         
_symmetry_equiv_pos_as_xyz    
x,y,z                         

loop_                         
_atom_site_label              
_atom_site_type_symbol        
_atom_site_occupancy          
_atom_site_fract_x            
_atom_site_fract_y            
_atom_site_fract_z            
_atom_site_U_iso_or_equiv     
H1   H    1.0     -0.58900633         -0.748582           0.58073386          0.0     
O2   O    1.0     -0.08911189         -0.35545641         0.0                 0.0     
O3   O    1.0     -0.58911189         -0.35545641         0.0                 0.0     
O4   O    1.0     -0.33911189         -0.04692641         0.05551082          0.0     
O5   O    1.0     -0.83911189         -0.04692641         0.05551082          0.0     
O6   O    1.0     -0.33911189         -0.66398641         0.05551082          0.0     
O7   O    1.0     -0.83911189         -0.66398641         0.05551082          0.0     
O8   O    1.0     -0.08911189         -0.35545641         0.11102164          0.0     
O9   O    1.0     -0.58911189         -0.35545641         0.11102164          0.0     
O10  O    1.0     -0.08911189         -0.85545641         0.14495957          0.0     
O11  O    1.0     -0.58911189         -0.85545641         0.14495957          0.0     
O12  O    1.0     -0.33911189         -0.16398641         0.20047039          0.0     
O13  O    1.0     -0.83911189         -0.16398641         0.20047039          0.0     
O14  O    1.0     -0.33911189         -0.54692641         0.20047039          0.0     
O15  O    1.0     -0.83911189         -0.54692641         0.20047039          0.0     
O16  O    1.0     -0.08911189         -0.85545641         0.25598121          0.0     
O17  O    1.0     -0.58911189         -0.85545641         0.25598121          0.0     
O18  O    1.0     -0.08919391         -0.35614051         0.28974799          0.0     
O19  O    1.0     -0.58918808         -0.35569418         0.28939324          0.0     
O20  O    1.0     -0.33960354         -0.04735219         0.34650936          0.0     
O21  O    1.0     -0.83875373         -0.04736026         0.34651352          0.0     
O22  O    1.0     -0.33980849         -0.66442054         0.34625663          0.0     
O23  O    1.0     -0.83852961         -0.66442964         0.34623583          0.0     
O24  O    1.0     -1.08918426         -0.35990539         0.40068826          0.0     
O25  O    1.0     -0.58917921         -0.35616893         0.40085651          0.0     
O26  O    1.0     -1.08903433         -0.85133947         0.43561218          0.0     
O27  O    1.0     -0.58906042         -0.8525621          0.43720971          0.0     
O28  O    1.0     -0.34592791         -0.16214758         0.49422454          0.0     
O29  O    1.0     -0.83186796         -0.16209372         0.49427001          0.0     
O30  O    1.0     -0.34940198         -0.54135826         0.49725988          0.0     
O31  O    1.0     -0.82830022         -0.54136511         0.49730253          0.0     
O32  O    1.0     -1.0890282          -0.85304946         0.54676226          0.0     
O33  O    1.0     -0.58904534         -0.86524401         0.5520879           0.0     
Ir34 Ir   1.0     -0.33911189         -0.35545641         0.05551082          0.0     
Ir35 Ir   1.0     -0.83911189         -0.35545641         0.05551082          0.0     
Ir36 Ir   1.0     -0.08911189         -0.85545641         0.05551082          0.0     
Ir37 Ir   1.0     -0.58911189         -0.85545641         0.05551082          0.0     
Ir38 Ir   1.0     -0.08911189         -0.35545641         0.20047039          0.0     
Ir39 Ir   1.0     -0.58911189         -0.35545641         0.20047039          0.0     
Ir40 Ir   1.0     -0.33911189         -0.85545641         0.20047039          0.0     
Ir41 Ir   1.0     -0.83911189         -0.85545641         0.20047039          0.0     
Ir42 Ir   1.0     -0.33931467         -0.35592774         0.34487584          0.0     
Ir43 Ir   1.0     -0.83906712         -0.3559387          0.34487005          0.0     
Ir44 Ir   1.0     -0.08914915         -0.85566901         0.34603853          0.0     
Ir45 Ir   1.0     -0.58915234         -0.85569292         0.34687162          0.0     
Ir46 Ir   1.0     -1.0887876          -0.35255721         0.48853055          0.0     
Ir47 Ir   1.0     -0.33339466         -0.85160077         0.4926477           0.0     
Ir48 Ir   1.0     -0.84460947         -0.8515886          0.49265667          0.0     
Ti49 Ti   1.0     -0.58884032         -0.34807515         0.48469997          0.0     
