data_HOIrMo
_audit_creation_method        'pos2cif.py'        
_cell_length_a                6.36215693          
_cell_length_b                6.384482994809508   
_cell_length_c                22.021598412435427  
_cell_angle_alpha             90.0                
_cell_angle_beta              90.0                
_cell_angle_gamma             90.0                
_symmetry_space_group_H-M     'P1'                
_symmetry_Int_Tables_number   '1'                 
_symmetry_cell_setting        'triclinic'         
loop_                         
_symmetry_equiv_pos_as_xyz    
x,y,z                         

loop_                         
_atom_site_label              
_atom_site_type_symbol        
_atom_site_occupancy          
_atom_site_fract_x            
_atom_site_fract_y            
_atom_site_fract_z            
_atom_site_U_iso_or_equiv     
H1   H    1.0     0.58909784          -0.22735288         0.58619798          0.0     
O2   O    1.0     0.08911189          0.35545641          0.0                 0.0     
O3   O    1.0     0.58911189          0.35545641          0.0                 0.0     
O4   O    1.0     0.33911189          0.04692641          0.05551082          0.0     
O5   O    1.0     0.83911189          0.04692641          0.05551082          0.0     
O6   O    1.0     0.33911189          0.66398641          0.05551082          0.0     
O7   O    1.0     0.83911189          0.66398641          0.05551082          0.0     
O8   O    1.0     0.08911189          0.35545641          0.11102164          0.0     
O9   O    1.0     0.58911189          0.35545641          0.11102164          0.0     
O10  O    1.0     0.08911189          -0.14454359         0.14495957          0.0     
O11  O    1.0     0.58911189          -0.14454359         0.14495957          0.0     
O12  O    1.0     0.33911189          0.16398641          0.20047039          0.0     
O13  O    1.0     0.83911189          0.16398641          0.20047039          0.0     
O14  O    1.0     0.33911189          0.54692641          0.20047039          0.0     
O15  O    1.0     0.83911189          0.54692641          0.20047039          0.0     
O16  O    1.0     0.08911189          -0.14454359         0.25598121          0.0     
O17  O    1.0     0.58911189          -0.14454359         0.25598121          0.0     
O18  O    1.0     0.08918556          0.35238264          0.28984279          0.0     
O19  O    1.0     0.58917726          0.34886451          0.28915488          0.0     
O20  O    1.0     0.33837006          0.04571862          0.34748462          0.0     
O21  O    1.0     0.8400306           0.04574969          0.3474798           0.0     
O22  O    1.0     0.34025088          0.66314957          0.34520127          0.0     
O23  O    1.0     0.83814787          0.66318233          0.34519807          0.0     
O24  O    1.0     0.08915764          0.38138595          0.40108914          0.0     
O25  O    1.0     0.58918144          0.35583874          0.40065414          0.0     
O26  O    1.0     0.08921432          -0.1549673          0.43588353          0.0     
O27  O    1.0     0.58922462          -0.15193664         0.43769844          0.0     
O28  O    1.0     0.34260535          0.15727346          0.49289267          0.0     
O29  O    1.0     0.83571761          0.157265            0.49287432          0.0     
O30  O    1.0     0.34713113          0.53785868          0.49776277          0.0     
O31  O    1.0     0.83121066          0.53783566          0.49772534          0.0     
O32  O    1.0     0.08920108          -0.14838139         0.54803385          0.0     
O33  O    1.0     0.5891783           -0.12854476         0.55245842          0.0     
Ir34 Ir   1.0     0.33911189          0.35545641          0.05551082          0.0     
Ir35 Ir   1.0     0.83911189          0.35545641          0.05551082          0.0     
Ir36 Ir   1.0     0.08911189          -0.14454359         0.05551082          0.0     
Ir37 Ir   1.0     0.58911189          -0.14454359         0.05551082          0.0     
Ir38 Ir   1.0     0.08911189          0.35545641          0.20047039          0.0     
Ir39 Ir   1.0     0.58911189          0.35545641          0.20047039          0.0     
Ir40 Ir   1.0     0.33911189          -0.14454359         0.20047039          0.0     
Ir41 Ir   1.0     0.83911189          -0.14454359         0.20047039          0.0     
Ir42 Ir   1.0     0.33791165          0.35415855          0.34482854          0.0     
Ir43 Ir   1.0     0.84044199          0.35418598          0.34482261          0.0     
Ir44 Ir   1.0     0.08919009          -0.1465317          0.34602366          0.0     
Ir45 Ir   1.0     0.58919398          -0.14573294         0.34690572          0.0     
Ir46 Ir   1.0     0.08917204          0.34691402          0.49058749          0.0     
Ir47 Ir   1.0     0.33319273          -0.15191395         0.49338061          0.0     
Ir48 Ir   1.0     0.84519463          -0.15193144         0.49337981          0.0     
Mo49 Mo   1.0     0.58915662          0.34582258          0.48545218          0.0     
