data_HOOsIr
_audit_creation_method        'pos2cif.py'        
_cell_length_a                6.36215693          
_cell_length_b                6.38448299          
_cell_length_c                22.02159841         
_cell_angle_alpha             90.0                
_cell_angle_beta              90.0                
_cell_angle_gamma             90.0                
_symmetry_space_group_H-M     'P1'                
_symmetry_Int_Tables_number   '1'                 
_symmetry_cell_setting        'triclinic'         
loop_                         
_symmetry_equiv_pos_as_xyz    
x,y,z                         

loop_                         
_atom_site_label              
_atom_site_type_symbol        
_atom_site_occupancy          
_atom_site_fract_x            
_atom_site_fract_y            
_atom_site_fract_z            
_atom_site_U_iso_or_equiv     
H1   H    1.0     -0.58923118         -0.76045807         0.58375111          0.0     
O2   O    1.0     -0.08911            -0.35546            0.0                 0.0     
O3   O    1.0     -0.58911            -0.35546            0.0                 0.0     
O4   O    1.0     -0.33911            -0.04693            0.05551             0.0     
O5   O    1.0     -0.83911            -0.04693            0.05551             0.0     
O6   O    1.0     -0.33911            -0.66399            0.05551             0.0     
O7   O    1.0     -0.83911            -0.66399            0.05551             0.0     
O8   O    1.0     -0.08911            -0.35546            0.11102             0.0     
O9   O    1.0     -0.58911            -0.35546            0.11102             0.0     
O10  O    1.0     -0.58911            -0.85546            0.14496             0.0     
O11  O    1.0     -0.08911            -0.85546            0.14496             0.0     
O12  O    1.0     -0.33911            -0.16399            0.20047             0.0     
O13  O    1.0     -0.83911            -0.16399            0.20047             0.0     
O14  O    1.0     -0.33911            -0.54693            0.20047             0.0     
O15  O    1.0     -0.83911            -0.54693            0.20047             0.0     
O16  O    1.0     -0.08911            -0.85546            0.25598             0.0     
O17  O    1.0     -0.58911            -0.85546            0.25598             0.0     
O18  O    1.0     -0.08919022         -0.3527724          0.28994958          0.0     
O19  O    1.0     -0.58919571         -0.35219895         0.28947839          0.0     
O20  O    1.0     -0.33878437         -0.04680541         0.34705855          0.0     
O21  O    1.0     -0.83961993         -0.04680605         0.347064            0.0     
O22  O    1.0     -0.33960005         -0.66426755         0.34535033          0.0     
O23  O    1.0     -0.83877272         -0.664262           0.34535287          0.0     
O24  O    1.0     -1.08919675         -0.37285176         0.40080918          0.0     
O25  O    1.0     -0.5892241          -0.35980274         0.40078617          0.0     
O26  O    1.0     -1.08925434         -0.84883808         0.43558069          0.0     
O27  O    1.0     -0.58927086         -0.84992173         0.43702113          0.0     
O28  O    1.0     -0.34212722         -0.15929173         0.49317562          0.0     
O29  O    1.0     -0.83643877         -0.15929043         0.49317258          0.0     
O30  O    1.0     -0.34375881         -0.53770031         0.49581061          0.0     
O31  O    1.0     -0.83474002         -0.53769251         0.49585931          0.0     
O32  O    1.0     -1.08928015         -0.84959401         0.54735818          0.0     
O33  O    1.0     -0.58925669         -0.86580496         0.55162248          0.0     
Os34 Os   1.0     -0.58927321         -0.34722384         0.48613046          0.0     
Ir35 Ir   1.0     -0.33911            -0.35546            0.05551             0.0     
Ir36 Ir   1.0     -0.83911            -0.35546            0.05551             0.0     
Ir37 Ir   1.0     -0.08911            -0.85546            0.05551             0.0     
Ir38 Ir   1.0     -0.58911            -0.85546            0.05551             0.0     
Ir39 Ir   1.0     -0.08911            -0.35546            0.20047             0.0     
Ir40 Ir   1.0     -0.58911            -0.35546            0.20047             0.0     
Ir41 Ir   1.0     -0.33911            -0.85546            0.20047             0.0     
Ir42 Ir   1.0     -0.83911            -0.85546            0.20047             0.0     
Ir43 Ir   1.0     -0.8397406          -0.35533637         0.34517532          0.0     
Ir44 Ir   1.0     -0.33866259         -0.35533948         0.34517749          0.0     
Ir45 Ir   1.0     -0.0891777          -0.8549913          0.34569342          0.0     
Ir46 Ir   1.0     -0.58918531         -0.85521637         0.34666555          0.0     
Ir47 Ir   1.0     -1.08926086         -0.34787139         0.49028573          0.0     
Ir48 Ir   1.0     -0.33382887         -0.84874244         0.49258174          0.0     
Ir49 Ir   1.0     -0.84470001         -0.84873998         0.4925868           0.0     
