data_HOIrV
_audit_creation_method        'pos2cif.py'        
_cell_length_a                6.36215693          
_cell_length_b                6.384482994809508   
_cell_length_c                22.021598412435427  
_cell_angle_alpha             90.0                
_cell_angle_beta              90.0                
_cell_angle_gamma             90.0                
_symmetry_space_group_H-M     'P1'                
_symmetry_Int_Tables_number   '1'                 
_symmetry_cell_setting        'triclinic'         
loop_                         
_symmetry_equiv_pos_as_xyz    
x,y,z                         

loop_                         
_atom_site_label              
_atom_site_type_symbol        
_atom_site_occupancy          
_atom_site_fract_x            
_atom_site_fract_y            
_atom_site_fract_z            
_atom_site_U_iso_or_equiv     
H1   H    1.0     0.58901745          0.74498317          0.58012873          0.0     
O2   O    1.0     0.08911189          0.35545641          0.0                 0.0     
O3   O    1.0     0.58911189          0.35545641          0.0                 0.0     
O4   O    1.0     0.33911189          0.04692641          0.05551082          0.0     
O5   O    1.0     0.83911189          0.04692641          0.05551082          0.0     
O6   O    1.0     0.33911189          0.66398641          0.05551082          0.0     
O7   O    1.0     0.83911189          0.66398641          0.05551082          0.0     
O8   O    1.0     0.08911189          0.35545641          0.11102164          0.0     
O9   O    1.0     0.58911189          0.35545641          0.11102164          0.0     
O10  O    1.0     0.08911189          -0.14454359         0.14495957          0.0     
O11  O    1.0     0.58911189          -0.14454359         0.14495957          0.0     
O12  O    1.0     0.33911189          0.16398641          0.20047039          0.0     
O13  O    1.0     0.83911189          0.16398641          0.20047039          0.0     
O14  O    1.0     0.33911189          0.54692641          0.20047039          0.0     
O15  O    1.0     0.83911189          0.54692641          0.20047039          0.0     
O16  O    1.0     0.08911189          -0.14454359         0.25598121          0.0     
O17  O    1.0     0.58911189          -0.14454359         0.25598121          0.0     
O18  O    1.0     0.08917044          0.35616668          0.28985605          0.0     
O19  O    1.0     0.5891665           0.35604764          0.28946797          0.0     
O20  O    1.0     0.33957556          0.04749887          0.34630784          0.0     
O21  O    1.0     0.83877193          0.04750374          0.34628672          0.0     
O22  O    1.0     0.33973838          0.66480341          0.34619784          0.0     
O23  O    1.0     0.83857388          0.66480568          0.34618685          0.0     
O24  O    1.0     0.08916237          0.36084798          0.40063276          0.0     
O25  O    1.0     0.58915183          0.35673614          0.40144835          0.0     
O26  O    1.0     0.08902286          -0.1475056          0.43546304          0.0     
O27  O    1.0     0.58905388          -0.14751423         0.43706313          0.0     
O28  O    1.0     0.35031784          0.16472787          0.49253542          0.0     
O29  O    1.0     0.8274518           0.16469272          0.49256636          0.0     
O30  O    1.0     0.35167563          0.53891651          0.49548257          0.0     
O31  O    1.0     0.82614713          0.53891231          0.49549234          0.0     
O32  O    1.0     0.08895777          -0.14661651         0.54652511          0.0     
O33  O    1.0     0.58902173          -0.13658376         0.55203502          0.0     
Ir34 Ir   1.0     0.33911189          0.35545641          0.05551082          0.0     
Ir35 Ir   1.0     0.83911189          0.35545641          0.05551082          0.0     
Ir36 Ir   1.0     0.08911189          -0.14454359         0.05551082          0.0     
Ir37 Ir   1.0     0.58911189          -0.14454359         0.05551082          0.0     
Ir38 Ir   1.0     0.08911189          0.35545641          0.20047039          0.0     
Ir39 Ir   1.0     0.58911189          0.35545641          0.20047039          0.0     
Ir40 Ir   1.0     0.33911189          -0.14454359         0.20047039          0.0     
Ir41 Ir   1.0     0.83911189          -0.14454359         0.20047039          0.0     
Ir42 Ir   1.0     0.33936295          0.35618577          0.34507609          0.0     
Ir43 Ir   1.0     0.83898236          0.35618572          0.34507369          0.0     
Ir44 Ir   1.0     0.08914044          -0.14406862         0.34595867          0.0     
Ir45 Ir   1.0     0.58914168          -0.14410119         0.34673302          0.0     
Ir46 Ir   1.0     0.08886446          0.35194406          0.48875566          0.0     
Ir47 Ir   1.0     0.33426011          -0.14805989         0.49242632          0.0     
Ir48 Ir   1.0     0.84370125          -0.14807466         0.49242546          0.0     
V49  V    1.0     0.58890408          0.34998249          0.48287357          0.0     
