data_HORuIr
_audit_creation_method        'pos2cif.py'        
_cell_length_a                6.36215693          
_cell_length_b                6.38448299          
_cell_length_c                22.02159841         
_cell_angle_alpha             90.0                
_cell_angle_beta              90.0                
_cell_angle_gamma             90.0                
_symmetry_space_group_H-M     'P1'                
_symmetry_Int_Tables_number   '1'                 
_symmetry_cell_setting        'triclinic'         
loop_                         
_symmetry_equiv_pos_as_xyz    
x,y,z                         

loop_                         
_atom_site_label              
_atom_site_type_symbol        
_atom_site_occupancy          
_atom_site_fract_x            
_atom_site_fract_y            
_atom_site_fract_z            
_atom_site_U_iso_or_equiv     
H1   H    1.0     0.5891513           -0.24932196         0.58119293          0.0     
O2   O    1.0     0.08911             0.35546             0.0                 0.0     
O3   O    1.0     0.58911             0.35546             0.0                 0.0     
O4   O    1.0     0.33911             0.04693             0.05551             0.0     
O5   O    1.0     0.83911             0.04693             0.05551             0.0     
O6   O    1.0     0.33911             0.66399             0.05551             0.0     
O7   O    1.0     0.83911             0.66399             0.05551             0.0     
O8   O    1.0     0.08911             0.35546             0.11102             0.0     
O9   O    1.0     0.58911             0.35546             0.11102             0.0     
O10  O    1.0     0.58911             -0.14454            0.14496             0.0     
O11  O    1.0     0.08911             -0.14454            0.14496             0.0     
O12  O    1.0     0.33911             0.16399             0.20047             0.0     
O13  O    1.0     0.83911             0.16399             0.20047             0.0     
O14  O    1.0     0.33911             0.54693             0.20047             0.0     
O15  O    1.0     0.83911             0.54693             0.20047             0.0     
O16  O    1.0     0.08911             -0.14454            0.25598             0.0     
O17  O    1.0     0.58911             -0.14454            0.25598             0.0     
O18  O    1.0     0.08917826          0.35523618          0.29001311          0.0     
O19  O    1.0     0.58918074          0.35521349          0.28967194          0.0     
O20  O    1.0     0.33932768          0.04756161          0.34652211          0.0     
O21  O    1.0     0.83907324          0.04756484          0.34651871          0.0     
O22  O    1.0     0.33957544          0.66497759          0.34589606          0.0     
O23  O    1.0     0.83881356          0.66497655          0.34588922          0.0     
O24  O    1.0     0.08921687          0.3644478           0.40046701          0.0     
O25  O    1.0     0.58921222          0.35833294          0.40066042          0.0     
O26  O    1.0     0.08928478          -0.14736598         0.43520726          0.0     
O27  O    1.0     0.58928403          -0.14759057         0.43662261          0.0     
O28  O    1.0     0.34105669          0.16035801          0.49309058          0.0     
O29  O    1.0     0.83766831          0.16035311          0.49306459          0.0     
O30  O    1.0     0.34208             0.54106929          0.49456788          0.0     
O31  O    1.0     0.83665471          0.54107116          0.49454046          0.0     
O32  O    1.0     0.08931323          -0.14890509         0.54660461          0.0     
O33  O    1.0     0.58929325          -0.13730284         0.55102923          0.0     
Ru34 Ru   1.0     0.58939061          0.34945941          0.4864202           0.0     
Ir35 Ir   1.0     0.33911             0.35546             0.05551             0.0     
Ir36 Ir   1.0     0.83911             0.35546             0.05551             0.0     
Ir37 Ir   1.0     0.08911             -0.14454            0.05551             0.0     
Ir38 Ir   1.0     0.58911             -0.14454            0.05551             0.0     
Ir39 Ir   1.0     0.08911             0.35546             0.20047             0.0     
Ir40 Ir   1.0     0.58911             0.35546             0.20047             0.0     
Ir41 Ir   1.0     0.33911             -0.14454            0.20047             0.0     
Ir42 Ir   1.0     0.83911             -0.14454            0.20047             0.0     
Ir43 Ir   1.0     0.83871969          0.35617122          0.34536405          0.0     
Ir44 Ir   1.0     0.33965799          0.35616908          0.34536623          0.0     
Ir45 Ir   1.0     0.0891903           -0.1439778          0.34560261          0.0     
Ir46 Ir   1.0     0.58919059          -0.1439927          0.34656647          0.0     
Ir47 Ir   1.0     0.089385            0.3502853           0.48910296          0.0     
Ir48 Ir   1.0     0.3336457           -0.14918216         0.49189573          0.0     
Ir49 Ir   1.0     0.84497504          -0.1491986          0.49189812          0.0     
