data_HOIrGe
_audit_creation_method        'pos2cif.py'        
_cell_length_a                6.36215693          
_cell_length_b                6.384482994809508   
_cell_length_c                22.021598412435427  
_cell_angle_alpha             90.0                
_cell_angle_beta              90.0                
_cell_angle_gamma             90.0                
_symmetry_space_group_H-M     'P1'                
_symmetry_Int_Tables_number   '1'                 
_symmetry_cell_setting        'triclinic'         
loop_                         
_symmetry_equiv_pos_as_xyz    
x,y,z                         

loop_                         
_atom_site_label              
_atom_site_type_symbol        
_atom_site_occupancy          
_atom_site_fract_x            
_atom_site_fract_y            
_atom_site_fract_z            
_atom_site_U_iso_or_equiv     
H1   H    1.0     -0.58905236         -0.74369532         0.5794225           0.0     
O2   O    1.0     -0.08911189         -0.35545641         0.0                 0.0     
O3   O    1.0     -0.58911189         -0.35545641         0.0                 0.0     
O4   O    1.0     -0.33911189         -0.04692641         0.05551082          0.0     
O5   O    1.0     -0.83911189         -0.04692641         0.05551082          0.0     
O6   O    1.0     -0.33911189         -0.66398641         0.05551082          0.0     
O7   O    1.0     -0.83911189         -0.66398641         0.05551082          0.0     
O8   O    1.0     -0.08911189         -0.35545641         0.11102164          0.0     
O9   O    1.0     -0.58911189         -0.35545641         0.11102164          0.0     
O10  O    1.0     -0.08911189         -0.85545641         0.14495957          0.0     
O11  O    1.0     -0.58911189         -0.85545641         0.14495957          0.0     
O12  O    1.0     -0.33911189         -0.16398641         0.20047039          0.0     
O13  O    1.0     -0.83911189         -0.16398641         0.20047039          0.0     
O14  O    1.0     -0.33911189         -0.54692641         0.20047039          0.0     
O15  O    1.0     -0.83911189         -0.54692641         0.20047039          0.0     
O16  O    1.0     -0.08911189         -0.85545641         0.25598121          0.0     
O17  O    1.0     -0.58911189         -0.85545641         0.25598121          0.0     
O18  O    1.0     -0.08919879         -0.35582622         0.28988832          0.0     
O19  O    1.0     -0.58922206         -0.3557488          0.28980851          0.0     
O20  O    1.0     -0.33950883         -0.04783224         0.34636561          0.0     
O21  O    1.0     -0.838901           -0.0478156          0.34636465          0.0     
O22  O    1.0     -0.33954956         -0.66456314         0.34620954          0.0     
O23  O    1.0     -0.83881368         -0.66455556         0.34621114          0.0     
O24  O    1.0     -1.08923625         -0.36039171         0.40106601          0.0     
O25  O    1.0     -0.58922471         -0.35799836         0.40134425          0.0     
O26  O    1.0     -1.08904767         -0.85300965         0.43536754          0.0     
O27  O    1.0     -0.58907669         -0.85278871         0.43697011          0.0     
O28  O    1.0     -0.34669158         -0.16564355         0.495019            0.0     
O29  O    1.0     -0.83119356         -0.16565554         0.49514392          0.0     
O30  O    1.0     -0.34808324         -0.53789853         0.49823535          0.0     
O31  O    1.0     -0.82973673         -0.53790494         0.49830709          0.0     
O32  O    1.0     -1.08903882         -0.85317136         0.54607674          0.0     
O33  O    1.0     -0.58904327         -0.86289072         0.55160107          0.0     
Ir34 Ir   1.0     -0.33911189         -0.35545641         0.05551082          0.0     
Ir35 Ir   1.0     -0.83911189         -0.35545641         0.05551082          0.0     
Ir36 Ir   1.0     -0.08911189         -0.85545641         0.05551082          0.0     
Ir37 Ir   1.0     -0.58911189         -0.85545641         0.05551082          0.0     
Ir38 Ir   1.0     -0.08911189         -0.35545641         0.20047039          0.0     
Ir39 Ir   1.0     -0.58911189         -0.35545641         0.20047039          0.0     
Ir40 Ir   1.0     -0.33911189         -0.85545641         0.20047039          0.0     
Ir41 Ir   1.0     -0.83911189         -0.85545641         0.20047039          0.0     
Ir42 Ir   1.0     -0.33865567         -0.35619219         0.34522479          0.0     
Ir43 Ir   1.0     -0.83978878         -0.35619361         0.34522748          0.0     
Ir44 Ir   1.0     -0.08916586         -0.85606205         0.34593251          0.0     
Ir45 Ir   1.0     -0.58916605         -0.85588752         0.34660693          0.0     
Ir46 Ir   1.0     -1.08880977         -0.3525258          0.48920003          0.0     
Ir47 Ir   1.0     -0.33530544         -0.8521195          0.49217427          0.0     
Ir48 Ir   1.0     -0.8427246          -0.85213526         0.49218509          0.0     
Ge49 Ge   1.0     -0.58885198         -0.35011591         0.48402788          0.0     
