data_HORhIr
_audit_creation_method        'pos2cif.py'        
_cell_length_a                6.36215693          
_cell_length_b                6.38448299          
_cell_length_c                22.02159841         
_cell_angle_alpha             90.0                
_cell_angle_beta              90.0                
_cell_angle_gamma             90.0                
_symmetry_space_group_H-M     'P1'                
_symmetry_Int_Tables_number   '1'                 
_symmetry_cell_setting        'triclinic'         
loop_                         
_symmetry_equiv_pos_as_xyz    
x,y,z                         

loop_                         
_atom_site_label              
_atom_site_type_symbol        
_atom_site_occupancy          
_atom_site_fract_x            
_atom_site_fract_y            
_atom_site_fract_z            
_atom_site_U_iso_or_equiv     
H1   H    1.0     -0.58918513         -0.7418365          0.57913014          0.0     
O2   O    1.0     -0.08911            -0.35546            0.0                 0.0     
O3   O    1.0     -0.58911            -0.35546            0.0                 0.0     
O4   O    1.0     -0.33911            -0.04693            0.05551             0.0     
O5   O    1.0     -0.83911            -0.04693            0.05551             0.0     
O6   O    1.0     -0.33911            -0.66399            0.05551             0.0     
O7   O    1.0     -0.83911            -0.66399            0.05551             0.0     
O8   O    1.0     -0.08911            -0.35546            0.11102             0.0     
O9   O    1.0     -0.58911            -0.35546            0.11102             0.0     
O10  O    1.0     -0.58911            -0.85546            0.14496             0.0     
O11  O    1.0     -0.08911            -0.85546            0.14496             0.0     
O12  O    1.0     -0.33911            -0.16399            0.20047             0.0     
O13  O    1.0     -0.83911            -0.16399            0.20047             0.0     
O14  O    1.0     -0.33911            -0.54693            0.20047             0.0     
O15  O    1.0     -0.83911            -0.54693            0.20047             0.0     
O16  O    1.0     -0.08911            -0.85546            0.25598             0.0     
O17  O    1.0     -0.58911            -0.85546            0.25598             0.0     
O18  O    1.0     -0.08918134         -0.35590754         0.28983362          0.0     
O19  O    1.0     -0.58918688         -0.3552259          0.28963982          0.0     
O20  O    1.0     -0.33946715         -0.04760795         0.34648782          0.0     
O21  O    1.0     -0.83894513         -0.0475904          0.34649058          0.0     
O22  O    1.0     -0.33969558         -0.66485899         0.34607221          0.0     
O23  O    1.0     -0.83867904         -0.66485106         0.34607148          0.0     
O24  O    1.0     -1.08923164         -0.36234627         0.40032713          0.0     
O25  O    1.0     -0.58919588         -0.35775741         0.39991093          0.0     
O26  O    1.0     -1.08920359         -0.85410524         0.4355272           0.0     
O27  O    1.0     -0.58922938         -0.85368382         0.43684729          0.0     
O28  O    1.0     -0.33724184         -0.16105937         0.49573866          0.0     
O29  O    1.0     -0.84110615         -0.16103855         0.49570535          0.0     
O30  O    1.0     -0.33836133         -0.54257944         0.49671124          0.0     
O31  O    1.0     -0.83999523         -0.54261972         0.49668819          0.0     
O32  O    1.0     -1.08920375         -0.85192773         0.54683568          0.0     
O33  O    1.0     -0.58922213         -0.86068344         0.55122546          0.0     
Rh34 Rh   1.0     -0.58916423         -0.35064025         0.48915969          0.0     
Ir35 Ir   1.0     -0.33911            -0.35546            0.05551             0.0     
Ir36 Ir   1.0     -0.83911            -0.35546            0.05551             0.0     
Ir37 Ir   1.0     -0.08911            -0.85546            0.05551             0.0     
Ir38 Ir   1.0     -0.58911            -0.85546            0.05551             0.0     
Ir39 Ir   1.0     -0.08911            -0.35546            0.20047             0.0     
Ir40 Ir   1.0     -0.58911            -0.35546            0.20047             0.0     
Ir41 Ir   1.0     -0.33911            -0.85546            0.20047             0.0     
Ir42 Ir   1.0     -0.83911            -0.85546            0.20047             0.0     
Ir43 Ir   1.0     -0.83836205         -0.35612756         0.34530589          0.0     
Ir44 Ir   1.0     -0.34006075         -0.35613756         0.34530551          0.0     
Ir45 Ir   1.0     -0.08918161         -0.85602766         0.34590425          0.0     
Ir46 Ir   1.0     -0.58919583         -0.8560628          0.34670248          0.0     
Ir47 Ir   1.0     -1.08915605         -0.35150395         0.48865525          0.0     
Ir48 Ir   1.0     -0.33354261         -0.85198331         0.49212515          0.0     
Ir49 Ir   1.0     -0.84485143         -0.85197236         0.49212175          0.0     
