data_HOVGe
_audit_creation_method        'pos2cif.py by jyxu'
_cell_length_a                5.64711014          
_cell_length_b                6.45014784          
_cell_length_c                22.26727818         
_cell_angle_alpha             90.0                
_cell_angle_beta              90.0                
_cell_angle_gamma             90.0                
_symmetry_space_group_H-M     'P1'                
_symmetry_Int_Tables_number   '1'                 
_symmetry_cell_setting        'triclinic'         
loop_                         
_symmetry_equiv_pos_as_xyz    
x,y,z                         

loop_                         
_atom_site_label              
_atom_site_type_symbol        
_atom_site_occupancy          
_atom_site_fract_x            
_atom_site_fract_y            
_atom_site_fract_z            
_atom_site_U_iso_or_equiv     
H1        H         1.0     0.41571259          0.18021273          0.58313209          0.0     
O1        O         1.0     0.41591             0.5548              0.0                 0.0     
O2        O         1.0     -0.08409            0.5548              0.0                 0.0     
O3        O         1.0     0.16591             0.25573             0.0582              0.0     
O4        O         1.0     0.66591             0.25573             0.0582              0.0     
O5        O         1.0     0.16591             0.85387             0.0582              0.0     
O6        O         1.0     0.66591             0.85387             0.0582              0.0     
O7        O         1.0     0.41591             0.5548              0.11641             0.0     
O8        O         1.0     -0.08409            0.5548              0.11641             0.0     
O9        O         1.0     -0.08409            0.0548              0.14483             0.0     
O10       O         1.0     0.41591             0.0548              0.14483             0.0     
O11       O         1.0     0.16591             0.35387             0.20304             0.0     
O12       O         1.0     0.66591             0.35387             0.20304             0.0     
O13       O         1.0     0.16591             0.75573             0.20304             0.0     
O14       O         1.0     0.66591             0.75573             0.20304             0.0     
O15       O         1.0     0.41591             0.0548              0.26124             0.0     
O16       O         1.0     -0.08409            0.0548              0.26124             0.0     
O17       O         1.0     -0.08395047         0.55473706          0.2888117           0.0     
O18       O         1.0     0.41603536          0.55505294          0.29032815          0.0     
O19       O         1.0     0.16413186          0.25612211          0.34908506          0.0     
O20       O         1.0     0.66754714          0.25612961          0.34909588          0.0     
O21       O         1.0     0.16351261          0.85325549          0.34946333          0.0     
O22       O         1.0     0.66811453          0.85322923          0.34948617          0.0     
O23       O         1.0     0.41602029          0.55337116          0.40567192          0.0     
O24       O         1.0     -0.0839751          0.5530178           0.40870117          0.0     
O25       O         1.0     0.41561374          0.05471663          0.43853814          0.0     
O26       O         1.0     -0.08423894         0.05839814          0.43825718          0.0     
O27       O         1.0     0.16915417          0.36564815          0.50445947          0.0     
O28       O         1.0     0.66274803          0.365679            0.50448815          0.0     
O29       O         1.0     0.16887956          0.74442387          0.50292103          0.0     
O30       O         1.0     0.6630546           0.74439055          0.50292949          0.0     
O31       O         1.0     -0.08411289         0.05305096          0.55074024          0.0     
O32       O         1.0     0.41591398          0.05636633          0.55809088          0.0     
V1        V         1.0     0.41591             0.0548              0.0582              0.0     
V2        V         1.0     -0.08409            0.0548              0.0582              0.0     
V3        V         1.0     0.16591             0.5548              0.0582              0.0     
V4        V         1.0     0.66591             0.5548              0.0582              0.0     
V5        V         1.0     0.16591             0.0548              0.20304             0.0     
V6        V         1.0     0.66591             0.0548              0.20304             0.0     
V7        V         1.0     0.41591             0.5548              0.20304             0.0     
V8        V         1.0     -0.08409            0.5548              0.20304             0.0     
V9        V         1.0     0.16379716          0.55524418          0.34576313          0.0     
V10       V         1.0     0.66851184          0.55524097          0.3457547           0.0     
V11       V         1.0     -0.08377893         0.05555966          0.34700654          0.0     
V12       V         1.0     0.4163238           0.05493273          0.35062796          0.0     
V13       V         1.0     -0.08402573         0.55423409          0.48680165          0.0     
V14       V         1.0     0.15905469          0.05282387          0.49721853          0.0     
V15       V         1.0     0.67378616          0.05287882          0.4975817           0.0     
Ge1       Ge        1.0     0.41595561          0.55487466          0.48736953          0.0     
