data_HOVMn
_audit_creation_method        'pos2cif.py by jyxu'
_cell_length_a                5.64711014          
_cell_length_b                6.45014784          
_cell_length_c                22.26727818         
_cell_angle_alpha             90.0                
_cell_angle_beta              90.0                
_cell_angle_gamma             90.0                
_symmetry_space_group_H-M     'P1'                
_symmetry_Int_Tables_number   '1'                 
_symmetry_cell_setting        'triclinic'         
loop_                         
_symmetry_equiv_pos_as_xyz    
x,y,z                         

loop_                         
_atom_site_label              
_atom_site_type_symbol        
_atom_site_occupancy          
_atom_site_fract_x            
_atom_site_fract_y            
_atom_site_fract_z            
_atom_site_U_iso_or_equiv     
H1        H         1.0     0.42351664          0.17621367          0.58354389          0.0     
O1        O         1.0     0.41591             0.5548              0.0                 0.0     
O2        O         1.0     -0.08409            0.5548              0.0                 0.0     
O3        O         1.0     0.16591             0.25573             0.0582              0.0     
O4        O         1.0     0.66591             0.25573             0.0582              0.0     
O5        O         1.0     0.16591             0.85387             0.0582              0.0     
O6        O         1.0     0.66591             0.85387             0.0582              0.0     
O7        O         1.0     0.41591             0.5548              0.11641             0.0     
O8        O         1.0     -0.08409            0.5548              0.11641             0.0     
O9        O         1.0     0.41591             0.0548              0.14483             0.0     
O10       O         1.0     -0.08409            0.0548              0.14483             0.0     
O11       O         1.0     0.16591             0.35387             0.20304             0.0     
O12       O         1.0     0.66591             0.35387             0.20304             0.0     
O13       O         1.0     0.16591             0.75573             0.20304             0.0     
O14       O         1.0     0.66591             0.75573             0.20304             0.0     
O15       O         1.0     0.41591             0.0548              0.26124             0.0     
O16       O         1.0     -0.08409            0.0548              0.26124             0.0     
O17       O         1.0     0.41824346          0.55545401          0.28959249          0.0     
O18       O         1.0     -0.0819             0.55527024          0.28889836          0.0     
O19       O         1.0     0.66480217          0.25537019          0.34861629          0.0     
O20       O         1.0     0.16126222          0.25624762          0.34838056          0.0     
O21       O         1.0     0.15947434          0.85311466          0.34928115          0.0     
O22       O         1.0     0.66531209          0.85395914          0.34943926          0.0     
O23       O         1.0     0.41814656          0.55434108          0.40316987          0.0     
O24       O         1.0     -0.08240804         0.54987424          0.40843238          0.0     
O25       O         1.0     -0.08680463         0.05969769          0.43794045          0.0     
O26       O         1.0     0.41303467          0.05570929          0.43830006          0.0     
O27       O         1.0     0.16194452          0.36491925          0.50377201          0.0     
O28       O         1.0     0.66872521          0.36615444          0.50434348          0.0     
O29       O         1.0     0.67158619          0.74943293          0.50157921          0.0     
O30       O         1.0     0.15719946          0.74848955          0.50186776          0.0     
O31       O         1.0     0.41739066          0.05494251          0.55747318          0.0     
O32       O         1.0     -0.08445474         0.06052648          0.55137049          0.0     
V1        V         1.0     0.41591             0.0548              0.0582              0.0     
V2        V         1.0     -0.08409            0.0548              0.0582              0.0     
V3        V         1.0     0.16591             0.5548              0.0582              0.0     
V4        V         1.0     0.66591             0.5548              0.0582              0.0     
V5        V         1.0     0.16591             0.0548              0.20304             0.0     
V6        V         1.0     0.66591             0.0548              0.20304             0.0     
V7        V         1.0     0.41591             0.5548              0.20304             0.0     
V8        V         1.0     -0.08409            0.5548              0.20304             0.0     
V9        V         1.0     0.67299632          0.55474392          0.34572902          0.0     
V10       V         1.0     -0.07776559         0.05653104          0.34663903          0.0     
V11       V         1.0     0.17396248          0.55551772          0.34717022          0.0     
V12       V         1.0     0.42221227          0.0543067           0.35155959          0.0     
V13       V         1.0     -0.0836324          0.54707834          0.48687226          0.0     
V14       V         1.0     0.6755311           0.04493981          0.49568751          0.0     
V15       V         1.0     0.15676305          0.04678781          0.49911641          0.0     
Mn1       Mn        1.0     0.41538077          0.55596647          0.49180651          0.0     
