data_HOVCr
_audit_creation_method        'pos2cif.py by jyxu'
_cell_length_a                5.64711014          
_cell_length_b                6.45014784          
_cell_length_c                22.26727818         
_cell_angle_alpha             90.0                
_cell_angle_beta              90.0                
_cell_angle_gamma             90.0                
_symmetry_space_group_H-M     'P1'                
_symmetry_Int_Tables_number   '1'                 
_symmetry_cell_setting        'triclinic'         
loop_                         
_symmetry_equiv_pos_as_xyz    
x,y,z                         

loop_                         
_atom_site_label              
_atom_site_type_symbol        
_atom_site_occupancy          
_atom_site_fract_x            
_atom_site_fract_y            
_atom_site_fract_z            
_atom_site_U_iso_or_equiv     
H1        H         1.0     0.41432914          0.17882969          0.58300342          0.0     
O1        O         1.0     0.41591             0.5548              0.0                 0.0     
O2        O         1.0     -0.08409            0.5548              0.0                 0.0     
O3        O         1.0     0.16591             0.25573             0.0582              0.0     
O4        O         1.0     0.66591             0.25573             0.0582              0.0     
O5        O         1.0     0.16591             0.85387             0.0582              0.0     
O6        O         1.0     0.66591             0.85387             0.0582              0.0     
O7        O         1.0     0.41591             0.5548              0.11641             0.0     
O8        O         1.0     -0.08409            0.5548              0.11641             0.0     
O9        O         1.0     0.41591             0.0548              0.14483             0.0     
O10       O         1.0     -0.08409            0.0548              0.14483             0.0     
O11       O         1.0     0.16591             0.35387             0.20304             0.0     
O12       O         1.0     0.66591             0.35387             0.20304             0.0     
O13       O         1.0     0.16591             0.75573             0.20304             0.0     
O14       O         1.0     0.66591             0.75573             0.20304             0.0     
O15       O         1.0     0.41591             0.0548              0.26124             0.0     
O16       O         1.0     -0.08409            0.0548              0.26124             0.0     
O17       O         1.0     0.41597307          0.55526336          0.28840795          0.0     
O18       O         1.0     -0.08404304         0.5551234           0.29097278          0.0     
O19       O         1.0     0.66538449          0.25614632          0.34871552          0.0     
O20       O         1.0     0.16629789          0.25615496          0.34870777          0.0     
O21       O         1.0     0.1655177           0.85372695          0.34928266          0.0     
O22       O         1.0     0.66602939          0.85367624          0.34928615          0.0     
O23       O         1.0     -0.08401527         0.55187524          0.40696384          0.0     
O24       O         1.0     0.41596028          0.55424613          0.4066495           0.0     
O25       O         1.0     -0.08442181         0.05848534          0.43765828          0.0     
O26       O         1.0     0.41551426          0.05585966          0.43852655          0.0     
O27       O         1.0     0.16219329          0.36529582          0.50281898          0.0     
O28       O         1.0     0.66965477          0.36514415          0.50275746          0.0     
O29       O         1.0     0.16039594          0.7487127           0.50099734          0.0     
O30       O         1.0     0.67166512          0.74858666          0.50109587          0.0     
O31       O         1.0     0.41553445          0.05659167          0.55732257          0.0     
O32       O         1.0     -0.08433148         0.06010959          0.5516358           0.0     
V1        V         1.0     0.41591             0.0548              0.0582              0.0     
V2        V         1.0     -0.08409            0.0548              0.0582              0.0     
V3        V         1.0     0.16591             0.5548              0.0582              0.0     
V4        V         1.0     0.66591             0.5548              0.0582              0.0     
V5        V         1.0     0.16591             0.0548              0.20304             0.0     
V6        V         1.0     0.66591             0.0548              0.20304             0.0     
V7        V         1.0     0.41591             0.5548              0.20304             0.0     
V8        V         1.0     -0.08409            0.5548              0.20304             0.0     
V9        V         1.0     0.65808105          0.55570519          0.34583287          0.0     
V10       V         1.0     0.17408526          0.55571634          0.34585321          0.0     
V11       V         1.0     0.41620037          0.05532263          0.35202915          0.0     
V12       V         1.0     -0.08389254         0.05614584          0.34707356          0.0     
V13       V         1.0     -0.08413432         0.5483579           0.48504377          0.0     
V14       V         1.0     0.15593286          0.04695695          0.49705919          0.0     
V15       V         1.0     0.67689001          0.04738357          0.49782478          0.0     
Cr1       Cr        1.0     0.41606282          0.55668256          0.48837311          0.0     
