data_HOVRh
_audit_creation_method        'pos2cif.py'        
_cell_length_a                5.64711014          
_cell_length_b                6.450147843790429   
_cell_length_c                22.267278180501698  
_cell_angle_alpha             90.0                
_cell_angle_beta              90.0                
_cell_angle_gamma             90.0                
_symmetry_space_group_H-M     'P1'                
_symmetry_Int_Tables_number   '1'                 
_symmetry_cell_setting        'triclinic'         
loop_                         
_symmetry_equiv_pos_as_xyz    
x,y,z                         

loop_                         
_atom_site_label              
_atom_site_type_symbol        
_atom_site_occupancy          
_atom_site_fract_x            
_atom_site_fract_y            
_atom_site_fract_z            
_atom_site_U_iso_or_equiv     
H1   H    1.0     0.89216504          0.92406273          0.57942736          0.0     
O2   O    1.0     0.41591489          0.55480134          0.0                 0.0     
O3   O    1.0     0.91591489          0.55480134          0.0                 0.0     
O4   O    1.0     0.16591489          0.25573134          0.05820326          0.0     
O5   O    1.0     0.66591489          0.25573134          0.05820326          0.0     
O6   O    1.0     0.16591489          0.85387134          0.05820326          0.0     
O7   O    1.0     0.66591489          0.85387134          0.05820326          0.0     
O8   O    1.0     0.41591489          0.55480134          0.11640652          0.0     
O9   O    1.0     0.91591489          0.55480134          0.11640652          0.0     
O10  O    1.0     0.41591489          0.05480134          0.14483467          0.0     
O11  O    1.0     0.91591489          0.05480134          0.14483467          0.0     
O12  O    1.0     0.16591489          0.35387134          0.20303793          0.0     
O13  O    1.0     0.66591489          0.35387134          0.20303793          0.0     
O14  O    1.0     0.16591489          0.75573134          0.20303793          0.0     
O15  O    1.0     0.66591489          0.75573134          0.20303793          0.0     
O16  O    1.0     0.41591489          0.05480134          0.26124119          0.0     
O17  O    1.0     0.91591489          0.05480134          0.26124119          0.0     
O18  O    1.0     0.41854192          0.55462949          0.28799013          0.0     
O19  O    1.0     0.91557205          0.55431571          0.29072519          0.0     
O20  O    1.0     0.16302649          0.25830328          0.3489227           0.0     
O21  O    1.0     0.66224533          0.25429989          0.34901373          0.0     
O22  O    1.0     0.16280714          0.85087123          0.34861669          0.0     
O23  O    1.0     0.66268223          0.85487644          0.34869419          0.0     
O24  O    1.0     0.41890352          0.55540863          0.4048209           0.0     
O25  O    1.0     -0.07981226         0.55582496          0.40671906          0.0     
O26  O    1.0     0.40531846          0.05204486          0.43994169          0.0     
O27  O    1.0     -0.09825728         0.0537223           0.43611248          0.0     
O28  O    1.0     0.13900579          0.34638184          0.50321657          0.0     
O29  O    1.0     0.68178108          0.35822827          0.50058904          0.0     
O30  O    1.0     0.13948502          0.75980862          0.50550656          0.0     
O31  O    1.0     0.68304375          0.74900039          0.50254522          0.0     
O32  O    1.0     0.41953255          0.05425706          0.55477444          0.0     
O33  O    1.0     -0.08898982         0.05611504          0.55849745          0.0     
V34  V    1.0     0.41591489          0.05480134          0.05820326          0.0     
V35  V    1.0     0.91591489          0.05480134          0.05820326          0.0     
V36  V    1.0     0.16591489          0.55480134          0.05820326          0.0     
V37  V    1.0     0.66591489          0.55480134          0.05820326          0.0     
V38  V    1.0     0.16591489          0.05480134          0.20303793          0.0     
V39  V    1.0     0.66591489          0.05480134          0.20303793          0.0     
V40  V    1.0     0.41591489          0.55480134          0.20303793          0.0     
V41  V    1.0     0.91591489          0.55480134          0.20303793          0.0     
V42  V    1.0     0.42012351          0.0540973           0.34863185          0.0     
V43  V    1.0     0.9260444           0.05465793          0.34735822          0.0     
V44  V    1.0     0.18813119          0.55457304          0.3477298           0.0     
V45  V    1.0     0.66179456          0.55458227          0.34602021          0.0     
V46  V    1.0     0.19307746          0.05497723          0.50550356          0.0     
V47  V    1.0     0.67822004          0.05853921          0.49091832          0.0     
V48  V    1.0     -0.07724127         0.55470567          0.4850066           0.0     
Rh49 Rh   1.0     0.40551203          0.55360179          0.49755843          0.0     
