data_HOVGe
_audit_creation_method        'pos2cif.py'        
_cell_length_a                5.64711014          
_cell_length_b                6.450147843790429   
_cell_length_c                22.267278180501698  
_cell_angle_alpha             90.0                
_cell_angle_beta              90.0                
_cell_angle_gamma             90.0                
_symmetry_space_group_H-M     'P1'                
_symmetry_Int_Tables_number   '1'                 
_symmetry_cell_setting        'triclinic'         
loop_                         
_symmetry_equiv_pos_as_xyz    
x,y,z                         

loop_                         
_atom_site_label              
_atom_site_type_symbol        
_atom_site_occupancy          
_atom_site_fract_x            
_atom_site_fract_y            
_atom_site_fract_z            
_atom_site_U_iso_or_equiv     
H1   H    1.0     0.89839623          0.92978127          0.58232696          0.0     
O2   O    1.0     0.41591489          0.55480134          0.0                 0.0     
O3   O    1.0     0.91591489          0.55480134          0.0                 0.0     
O4   O    1.0     0.16591489          0.25573134          0.05820326          0.0     
O5   O    1.0     0.66591489          0.25573134          0.05820326          0.0     
O6   O    1.0     0.16591489          0.85387134          0.05820326          0.0     
O7   O    1.0     0.66591489          0.85387134          0.05820326          0.0     
O8   O    1.0     0.41591489          0.55480134          0.11640652          0.0     
O9   O    1.0     0.91591489          0.55480134          0.11640652          0.0     
O10  O    1.0     0.41591489          0.05480134          0.14483467          0.0     
O11  O    1.0     0.91591489          0.05480134          0.14483467          0.0     
O12  O    1.0     0.16591489          0.35387134          0.20303793          0.0     
O13  O    1.0     0.66591489          0.35387134          0.20303793          0.0     
O14  O    1.0     0.16591489          0.75573134          0.20303793          0.0     
O15  O    1.0     0.66591489          0.75573134          0.20303793          0.0     
O16  O    1.0     0.41591489          0.05480134          0.26124119          0.0     
O17  O    1.0     0.91591489          0.05480134          0.26124119          0.0     
O18  O    1.0     0.41752524          0.55446569          0.28822608          0.0     
O19  O    1.0     0.91668397          0.55444273          0.29124318          0.0     
O20  O    1.0     0.16187301          0.25755409          0.34923746          0.0     
O21  O    1.0     0.66094537          0.25584038          0.34932233          0.0     
O22  O    1.0     0.16174709          0.85142337          0.34881665          0.0     
O23  O    1.0     0.66123952          0.85324001          0.34895408          0.0     
O24  O    1.0     0.41686671          0.55612281          0.40781327          0.0     
O25  O    1.0     -0.08311038         0.55493767          0.40732351          0.0     
O26  O    1.0     0.40716933          0.05145919          0.43880853          0.0     
O27  O    1.0     -0.09536821         0.0530046           0.43810965          0.0     
O28  O    1.0     0.16516181          0.36262649          0.50327492          0.0     
O29  O    1.0     0.6633115           0.36227646          0.50257787          0.0     
O30  O    1.0     0.16405232          0.74259017          0.50501958          0.0     
O31  O    1.0     0.66449554          0.74302374          0.50451432          0.0     
O32  O    1.0     0.41542021          0.05316843          0.5552246           0.0     
O33  O    1.0     -0.08548904         0.05424855          0.55777773          0.0     
V34  V    1.0     0.41591489          0.05480134          0.05820326          0.0     
V35  V    1.0     0.91591489          0.05480134          0.05820326          0.0     
V36  V    1.0     0.16591489          0.55480134          0.05820326          0.0     
V37  V    1.0     0.66591489          0.55480134          0.05820326          0.0     
V38  V    1.0     0.16591489          0.05480134          0.20303793          0.0     
V39  V    1.0     0.66591489          0.05480134          0.20303793          0.0     
V40  V    1.0     0.41591489          0.55480134          0.20303793          0.0     
V41  V    1.0     0.91591489          0.55480134          0.20303793          0.0     
V42  V    1.0     0.42229416          0.05395368          0.34937065          0.0     
V43  V    1.0     0.92506215          0.05455225          0.34750647          0.0     
V44  V    1.0     0.17905317          0.55445435          0.34592768          0.0     
V45  V    1.0     0.66262932          0.55438748          0.34550155          0.0     
V46  V    1.0     0.191916            0.05380632          0.50481967          0.0     
V47  V    1.0     0.6725833           0.05558488          0.49185185          0.0     
V48  V    1.0     -0.08518633         0.55187594          0.48489386          0.0     
Ge49 Ge   1.0     0.41440019          0.55437099          0.48961062          0.0     
