data_HOVMo
_audit_creation_method        'pos2cif.py'        
_cell_length_a                5.64711014          
_cell_length_b                6.450147843790429   
_cell_length_c                22.267278180501698  
_cell_angle_alpha             90.0                
_cell_angle_beta              90.0                
_cell_angle_gamma             90.0                
_symmetry_space_group_H-M     'P1'                
_symmetry_Int_Tables_number   '1'                 
_symmetry_cell_setting        'triclinic'         
loop_                         
_symmetry_equiv_pos_as_xyz    
x,y,z                         

loop_                         
_atom_site_label              
_atom_site_type_symbol        
_atom_site_occupancy          
_atom_site_fract_x            
_atom_site_fract_y            
_atom_site_fract_z            
_atom_site_U_iso_or_equiv     
H1   H    1.0     0.39942063          0.16422434          0.58931895          0.0     
O2   O    1.0     0.41591489          0.55480134          0.0                 0.0     
O3   O    1.0     0.91591489          0.55480134          0.0                 0.0     
O4   O    1.0     0.16591489          0.25573134          0.05820326          0.0     
O5   O    1.0     0.66591489          0.25573134          0.05820326          0.0     
O6   O    1.0     0.16591489          0.85387134          0.05820326          0.0     
O7   O    1.0     0.66591489          0.85387134          0.05820326          0.0     
O8   O    1.0     0.41591489          0.55480134          0.11640652          0.0     
O9   O    1.0     0.91591489          0.55480134          0.11640652          0.0     
O10  O    1.0     0.41591489          0.05480134          0.14483467          0.0     
O11  O    1.0     0.91591489          0.05480134          0.14483467          0.0     
O12  O    1.0     0.16591489          0.35387134          0.20303793          0.0     
O13  O    1.0     0.66591489          0.35387134          0.20303793          0.0     
O14  O    1.0     0.16591489          0.75573134          0.20303793          0.0     
O15  O    1.0     0.66591489          0.75573134          0.20303793          0.0     
O16  O    1.0     0.41591489          0.05480134          0.26124119          0.0     
O17  O    1.0     0.91591489          0.05480134          0.26124119          0.0     
O18  O    1.0     0.41790444          0.5565775           0.29048052          0.0     
O19  O    1.0     0.91812822          0.55656871          0.28813734          0.0     
O20  O    1.0     0.16315708          0.25838432          0.34979373          0.0     
O21  O    1.0     0.66550115          0.25983956          0.34981419          0.0     
O22  O    1.0     0.16290476          0.85355784          0.35086494          0.0     
O23  O    1.0     0.66541614          0.8522098           0.35090174          0.0     
O24  O    1.0     0.41752419          0.55341356          0.40738722          0.0     
O25  O    1.0     -0.08270449         0.55320163          0.41004811          0.0     
O26  O    1.0     0.40713704          0.06013835          0.43988095          0.0     
O27  O    1.0     -0.08909065         0.06165351          0.44301051          0.0     
O28  O    1.0     0.16116172          0.36118973          0.51156396          0.0     
O29  O    1.0     0.66802356          0.36255742          0.51166619          0.0     
O30  O    1.0     0.15902039          0.75596619          0.50828048          0.0     
O31  O    1.0     0.66910094          0.75617863          0.50801862          0.0     
O32  O    1.0     0.42007717          0.04945421          0.56139131          0.0     
O33  O    1.0     -0.0761505          0.05711007          0.56034067          0.0     
V34  V    1.0     0.41591489          0.05480134          0.05820326          0.0     
V35  V    1.0     0.91591489          0.05480134          0.05820326          0.0     
V36  V    1.0     0.16591489          0.55480134          0.05820326          0.0     
V37  V    1.0     0.66591489          0.55480134          0.05820326          0.0     
V38  V    1.0     0.16591489          0.05480134          0.20303793          0.0     
V39  V    1.0     0.66591489          0.05480134          0.20303793          0.0     
V40  V    1.0     0.41591489          0.55480134          0.20303793          0.0     
V41  V    1.0     0.91591489          0.55480134          0.20303793          0.0     
V42  V    1.0     0.42499343          0.05633346          0.34924377          0.0     
V43  V    1.0     0.92152788          0.05657293          0.34991738          0.0     
V44  V    1.0     0.16337767          0.55636899          0.34384629          0.0     
V45  V    1.0     0.67709287          0.55618319          0.34423428          0.0     
V46  V    1.0     0.1807052           0.05780955          0.49465365          0.0     
V47  V    1.0     0.70371081          0.05892782          0.50990775          0.0     
V48  V    1.0     -0.08322272         0.55714156          0.4883184           0.0     
Mo49 Mo   1.0     0.41581095          0.55829709          0.48798521          0.0     
