data_HOVRh
_audit_creation_method        'pos2cif.py by jyxu'
_cell_length_a                5.64711014          
_cell_length_b                6.45014784          
_cell_length_c                22.26727818         
_cell_angle_alpha             90.0                
_cell_angle_beta              90.0                
_cell_angle_gamma             90.0                
_symmetry_space_group_H-M     'P1'                
_symmetry_Int_Tables_number   '1'                 
_symmetry_cell_setting        'triclinic'         
loop_                         
_symmetry_equiv_pos_as_xyz    
x,y,z                         

loop_                         
_atom_site_label              
_atom_site_type_symbol        
_atom_site_occupancy          
_atom_site_fract_x            
_atom_site_fract_y            
_atom_site_fract_z            
_atom_site_U_iso_or_equiv     
H1        H         1.0     0.41073528          0.17027526          0.58460835          0.0     
O1        O         1.0     0.41591             0.5548              0.0                 0.0     
O2        O         1.0     -0.08409            0.5548              0.0                 0.0     
O3        O         1.0     0.16591             0.25573             0.0582              0.0     
O4        O         1.0     0.66591             0.25573             0.0582              0.0     
O5        O         1.0     0.16591             0.85387             0.0582              0.0     
O6        O         1.0     0.66591             0.85387             0.0582              0.0     
O7        O         1.0     0.41591             0.5548              0.11641             0.0     
O8        O         1.0     -0.08409            0.5548              0.11641             0.0     
O9        O         1.0     -0.08409            0.0548              0.14483             0.0     
O10       O         1.0     0.41591             0.0548              0.14483             0.0     
O11       O         1.0     0.16591             0.35387             0.20304             0.0     
O12       O         1.0     0.66591             0.35387             0.20304             0.0     
O13       O         1.0     0.16591             0.75573             0.20304             0.0     
O14       O         1.0     0.66591             0.75573             0.20304             0.0     
O15       O         1.0     0.41591             0.0548              0.26124             0.0     
O16       O         1.0     -0.08409            0.0548              0.26124             0.0     
O17       O         1.0     0.41989219          0.55670594          0.28809715          0.0     
O18       O         1.0     -0.08325283         0.5562728           0.29070441          0.0     
O19       O         1.0     0.66596309          0.25708767          0.34882005          0.0     
O20       O         1.0     0.16450218          0.25929514          0.34826436          0.0     
O21       O         1.0     0.16375882          0.853505            0.34879234          0.0     
O22       O         1.0     0.66614193          0.8557174           0.34930187          0.0     
O23       O         1.0     0.42008591          0.55608424          0.40461774          0.0     
O24       O         1.0     -0.07830808         0.55416039          0.40712635          0.0     
O25       O         1.0     -0.08928489         0.05804987          0.43827155          0.0     
O26       O         1.0     0.40416141          0.05658234          0.4374201           0.0     
O27       O         1.0     0.1436814           0.34950799          0.50496291          0.0     
O28       O         1.0     0.68102398          0.36400211          0.50216459          0.0     
O29       O         1.0     0.67974063          0.75124454          0.50095268          0.0     
O30       O         1.0     0.14065903          0.76196425          0.50426623          0.0     
O31       O         1.0     0.41917986          0.05455934          0.55651862          0.0     
O32       O         1.0     -0.08877885         0.0587822           0.55502788          0.0     
V1        V         1.0     0.41591             0.0548              0.0582              0.0     
V2        V         1.0     -0.08409            0.0548              0.0582              0.0     
V3        V         1.0     0.16591             0.5548              0.0582              0.0     
V4        V         1.0     0.66591             0.5548              0.0582              0.0     
V5        V         1.0     0.16591             0.0548              0.20304             0.0     
V6        V         1.0     0.66591             0.0548              0.20304             0.0     
V7        V         1.0     0.41591             0.5548              0.20304             0.0     
V8        V         1.0     -0.08409            0.5548              0.20304             0.0     
V9        V         1.0     0.66410509          0.55669495          0.34596234          0.0     
V10       V         1.0     0.18935638          0.55735745          0.34754694          0.0     
V11       V         1.0     -0.07403454         0.05768265          0.34729729          0.0     
V12       V         1.0     0.42502093          0.05609574          0.34931295          0.0     
V13       V         1.0     -0.07405049         0.55209574          0.48507537          0.0     
V14       V         1.0     0.17281434          0.05284345          0.49262224          0.0     
V15       V         1.0     0.69590111          0.05039424          0.50251654          0.0     
Rh1       Rh        1.0     0.40526965          0.55750858          0.49784312          0.0     
