data_HOVTi
_audit_creation_method        'pos2cif.py by jyxu'
_cell_length_a                5.64711014          
_cell_length_b                6.450147843790429   
_cell_length_c                22.267278180501698  
_cell_angle_alpha             90.0                
_cell_angle_beta              90.0                
_cell_angle_gamma             90.0                
_symmetry_space_group_H-M     'P1'                
_symmetry_Int_Tables_number   '1'                 
_symmetry_cell_setting        'triclinic'         
loop_                         
_symmetry_equiv_pos_as_xyz    
x,y,z                         

loop_                         
_atom_site_label              
_atom_site_type_symbol        
_atom_site_occupancy          
_atom_site_fract_x            
_atom_site_fract_y            
_atom_site_fract_z            
_atom_site_U_iso_or_equiv     
H1        H         1.0     0.39895932          0.16780166          0.58609753          0.0     
O1        O         1.0     0.41591489          0.55480134          0.0                 0.0     
O2        O         1.0     -0.08408511         0.55480134          0.0                 0.0     
O3        O         1.0     0.16591489          0.25573134          0.05820326          0.0     
O4        O         1.0     0.66591489          0.25573134          0.05820326          0.0     
O5        O         1.0     0.16591489          0.85387134          0.05820326          0.0     
O6        O         1.0     0.66591489          0.85387134          0.05820326          0.0     
O7        O         1.0     0.41591489          0.55480134          0.11640652          0.0     
O8        O         1.0     -0.08408511         0.55480134          0.11640652          0.0     
O9        O         1.0     0.41591489          0.05480134          0.14483467          0.0     
O10       O         1.0     -0.08408511         0.05480134          0.14483467          0.0     
O11       O         1.0     0.16591489          0.35387134          0.20303793          0.0     
O12       O         1.0     0.66591489          0.35387134          0.20303793          0.0     
O13       O         1.0     0.16591489          0.75573134          0.20303793          0.0     
O14       O         1.0     0.66591489          0.75573134          0.20303793          0.0     
O15       O         1.0     0.41591489          0.05480134          0.26124119          0.0     
O16       O         1.0     -0.08408511         0.05480134          0.26124119          0.0     
O17       O         1.0     0.41777013          0.55595578          0.28981031          0.0     
O18       O         1.0     -0.08207819         0.55559449          0.28893109          0.0     
O19       O         1.0     0.16197629          0.25692308          0.34912142          0.0     
O20       O         1.0     0.66481648          0.25787969          0.34935029          0.0     
O21       O         1.0     0.16134616          0.85380855          0.35001453          0.0     
O22       O         1.0     0.66483499          0.85291723          0.35015021          0.0     
O23       O         1.0     0.41775897          0.55375447          0.40629518          0.0     
O24       O         1.0     -0.08346307         0.55293982          0.40968821          0.0     
O25       O         1.0     0.40577952          0.05842561          0.43800122          0.0     
O26       O         1.0     -0.08921731         0.06065098          0.44158698          0.0     
O27       O         1.0     0.16232485          0.36141271          0.50637013          0.0     
O28       O         1.0     0.66651117          0.36233827          0.50743098          0.0     
O29       O         1.0     0.16006032          0.75358422          0.50380865          0.0     
O30       O         1.0     0.6682371           0.75389878          0.50458479          0.0     
O31       O         1.0     0.41818718          0.05059941          0.55888915          0.0     
O32       O         1.0     -0.0768904          0.05632421          0.55757876          0.0     
V1        V         1.0     0.41591489          0.05480134          0.05820326          0.0     
V2        V         1.0     -0.08408511         0.05480134          0.05820326          0.0     
V3        V         1.0     0.16591489          0.55480134          0.05820326          0.0     
V4        V         1.0     0.66591489          0.55480134          0.05820326          0.0     
V5        V         1.0     0.16591489          0.05480134          0.20303793          0.0     
V6        V         1.0     0.66591489          0.05480134          0.20303793          0.0     
V7        V         1.0     0.41591489          0.55480134          0.20303793          0.0     
V8        V         1.0     -0.08408511         0.55480134          0.20303793          0.0     
V9        V         1.0     0.42563505          0.05548929          0.34848343          0.0     
V10       V         1.0     -0.07788527         0.05591785          0.34807284          0.0     
V11       V         1.0     0.16818432          0.55556631          0.34542065          0.0     
V12       V         1.0     0.67317583          0.55549332          0.34552599          0.0     
V13       V         1.0     0.17959443          0.05625475          0.4922633           0.0     
V14       V         1.0     0.70199548          0.05734473          0.50734363          0.0     
V15       V         1.0     -0.08306707         0.55651309          0.48793719          0.0     
Ti1       Ti        1.0     0.41663602          0.55835996          0.48799669          0.0     
