data_HOVRu
_audit_creation_method        'pos2cif.py by jyxu'
_cell_length_a                5.64711014          
_cell_length_b                6.450147843790429   
_cell_length_c                22.267278180501698  
_cell_angle_alpha             90.0                
_cell_angle_beta              90.0                
_cell_angle_gamma             90.0                
_symmetry_space_group_H-M     'P1'                
_symmetry_Int_Tables_number   '1'                 
_symmetry_cell_setting        'triclinic'         
loop_                         
_symmetry_equiv_pos_as_xyz    
x,y,z                         

loop_                         
_atom_site_label              
_atom_site_type_symbol        
_atom_site_occupancy          
_atom_site_fract_x            
_atom_site_fract_y            
_atom_site_fract_z            
_atom_site_U_iso_or_equiv     
H1        H         1.0     0.40671293          0.15716435          0.58732797          0.0     
O1        O         1.0     0.41591489          0.55480134          0.0                 0.0     
O2        O         1.0     -0.08408511         0.55480134          0.0                 0.0     
O3        O         1.0     0.16591489          0.25573134          0.05820326          0.0     
O4        O         1.0     0.66591489          0.25573134          0.05820326          0.0     
O5        O         1.0     0.16591489          0.85387134          0.05820326          0.0     
O6        O         1.0     0.66591489          0.85387134          0.05820326          0.0     
O7        O         1.0     0.41591489          0.55480134          0.11640652          0.0     
O8        O         1.0     -0.08408511         0.55480134          0.11640652          0.0     
O9        O         1.0     0.41591489          0.05480134          0.14483467          0.0     
O10       O         1.0     -0.08408511         0.05480134          0.14483467          0.0     
O11       O         1.0     0.16591489          0.35387134          0.20303793          0.0     
O12       O         1.0     0.66591489          0.35387134          0.20303793          0.0     
O13       O         1.0     0.16591489          0.75573134          0.20303793          0.0     
O14       O         1.0     0.66591489          0.75573134          0.20303793          0.0     
O15       O         1.0     0.41591489          0.05480134          0.26124119          0.0     
O16       O         1.0     -0.08408511         0.05480134          0.26124119          0.0     
O17       O         1.0     0.41866205          0.55654219          0.28827745          0.0     
O18       O         1.0     -0.08233609         0.55626011          0.29061954          0.0     
O19       O         1.0     0.16442006          0.2574273           0.34821588          0.0     
O20       O         1.0     0.66404995          0.25704321          0.34850003          0.0     
O21       O         1.0     0.16376763          0.85391311          0.34932732          0.0     
O22       O         1.0     0.66436107          0.85416675          0.34965156          0.0     
O23       O         1.0     0.41622923          0.55397699          0.4069754           0.0     
O24       O         1.0     -0.08176983         0.5520137           0.40646818          0.0     
O25       O         1.0     0.40700923          0.05934963          0.4376635           0.0     
O26       O         1.0     -0.08889789         0.06180288          0.43805839          0.0     
O27       O         1.0     0.14915505          0.35648257          0.5049707           0.0     
O28       O         1.0     0.67682041          0.36065431          0.50424559          0.0     
O29       O         1.0     0.14684541          0.7605001           0.50149886          0.0     
O30       O         1.0     0.67832589          0.75699534          0.50087237          0.0     
O31       O         1.0     0.419724            0.04890892          0.55704107          0.0     
O32       O         1.0     -0.08224722         0.0575338           0.555589            0.0     
V1        V         1.0     0.41591489          0.05480134          0.05820326          0.0     
V2        V         1.0     -0.08408511         0.05480134          0.05820326          0.0     
V3        V         1.0     0.16591489          0.55480134          0.05820326          0.0     
V4        V         1.0     0.66591489          0.55480134          0.05820326          0.0     
V5        V         1.0     0.16591489          0.05480134          0.20303793          0.0     
V6        V         1.0     0.66591489          0.05480134          0.20303793          0.0     
V7        V         1.0     0.41591489          0.55480134          0.20303793          0.0     
V8        V         1.0     -0.08408511         0.55480134          0.20303793          0.0     
V9        V         1.0     0.42676682          0.0554822           0.34910001          0.0     
V10       V         1.0     -0.07357852         0.05652757          0.34825967          0.0     
V11       V         1.0     0.18156445          0.55579682          0.34600292          0.0     
V12       V         1.0     0.6650046           0.55560082          0.34528308          0.0     
V13       V         1.0     0.1736986           0.05708587          0.49232156          0.0     
V14       V         1.0     0.69875685          0.05720477          0.50358305          0.0     
V15       V         1.0     -0.08085226         0.55616072          0.48422058          0.0     
Ru1       Ru        1.0     0.41127927          0.55907673          0.49157296          0.0     
