data_HOVOs
_audit_creation_method        'pos2cif.py'        
_cell_length_a                5.64711014          
_cell_length_b                6.450147843790429   
_cell_length_c                22.267278180501698  
_cell_angle_alpha             90.0                
_cell_angle_beta              90.0                
_cell_angle_gamma             90.0                
_symmetry_space_group_H-M     'P1'                
_symmetry_Int_Tables_number   '1'                 
_symmetry_cell_setting        'triclinic'         
loop_                         
_symmetry_equiv_pos_as_xyz    
x,y,z                         

loop_                         
_atom_site_label              
_atom_site_type_symbol        
_atom_site_occupancy          
_atom_site_fract_x            
_atom_site_fract_y            
_atom_site_fract_z            
_atom_site_U_iso_or_equiv     
H1   H    1.0     0.4033493           0.14836377          0.58970583          0.0     
O2   O    1.0     0.41591489          0.55480134          0.0                 0.0     
O3   O    1.0     0.91591489          0.55480134          0.0                 0.0     
O4   O    1.0     0.16591489          0.25573134          0.05820326          0.0     
O5   O    1.0     0.66591489          0.25573134          0.05820326          0.0     
O6   O    1.0     0.16591489          0.85387134          0.05820326          0.0     
O7   O    1.0     0.66591489          0.85387134          0.05820326          0.0     
O8   O    1.0     0.41591489          0.55480134          0.11640652          0.0     
O9   O    1.0     0.91591489          0.55480134          0.11640652          0.0     
O10  O    1.0     0.41591489          0.05480134          0.14483467          0.0     
O11  O    1.0     0.91591489          0.05480134          0.14483467          0.0     
O12  O    1.0     0.16591489          0.35387134          0.20303793          0.0     
O13  O    1.0     0.66591489          0.35387134          0.20303793          0.0     
O14  O    1.0     0.16591489          0.75573134          0.20303793          0.0     
O15  O    1.0     0.66591489          0.75573134          0.20303793          0.0     
O16  O    1.0     0.41591489          0.05480134          0.26124119          0.0     
O17  O    1.0     0.91591489          0.05480134          0.26124119          0.0     
O18  O    1.0     0.41798444          0.55766466          0.28884157          0.0     
O19  O    1.0     0.91767328          0.55748188          0.28942598          0.0     
O20  O    1.0     0.16427779          0.25840476          0.34847567          0.0     
O21  O    1.0     0.66377378          0.25910628          0.348494            0.0     
O22  O    1.0     0.16321529          0.855085            0.35012449          0.0     
O23  O    1.0     0.66420067          0.8545173           0.35013377          0.0     
O24  O    1.0     0.41572072          0.55480977          0.40736519          0.0     
O25  O    1.0     -0.08288358         0.55090094          0.4071577           0.0     
O26  O    1.0     0.40837884          0.0623124           0.43867351          0.0     
O27  O    1.0     -0.08824849         0.06498678          0.43936407          0.0     
O28  O    1.0     0.15329561          0.35900692          0.50815128          0.0     
O29  O    1.0     0.67430466          0.36098844          0.50776869          0.0     
O30  O    1.0     0.14990855          0.76011767          0.50243515          0.0     
O31  O    1.0     0.67718299          0.75864549          0.50210087          0.0     
O32  O    1.0     0.42043555          0.04355639          0.55857369          0.0     
O33  O    1.0     -0.07915017         0.05647798          0.55699958          0.0     
V34  V    1.0     0.41591489          0.05480134          0.05820326          0.0     
V35  V    1.0     0.91591489          0.05480134          0.05820326          0.0     
V36  V    1.0     0.16591489          0.55480134          0.05820326          0.0     
V37  V    1.0     0.66591489          0.55480134          0.05820326          0.0     
V38  V    1.0     0.16591489          0.05480134          0.20303793          0.0     
V39  V    1.0     0.66591489          0.05480134          0.20303793          0.0     
V40  V    1.0     0.41591489          0.55480134          0.20303793          0.0     
V41  V    1.0     0.91591489          0.55480134          0.20303793          0.0     
V42  V    1.0     0.42687991          0.05702017          0.34856753          0.0     
V43  V    1.0     0.92537644          0.05772094          0.34955371          0.0     
V44  V    1.0     0.17482204          0.55708918          0.34514045          0.0     
V45  V    1.0     0.66877503          0.55703878          0.34479952          0.0     
V46  V    1.0     0.17734793          0.05886135          0.49280354          0.0     
V47  V    1.0     0.70063405          0.05879677          0.50575821          0.0     
V48  V    1.0     -0.08259707         0.55697699          0.48475286          0.0     
Os49 Os   1.0     0.41374907          0.55909111          0.49162211          0.0     
