data_HOVIr
_audit_creation_method        'pos2cif.py by jyxu'
_cell_length_a                5.64711014          
_cell_length_b                6.450147843790429   
_cell_length_c                22.267278180501698  
_cell_angle_alpha             90.0                
_cell_angle_beta              90.0                
_cell_angle_gamma             90.0                
_symmetry_space_group_H-M     'P1'                
_symmetry_Int_Tables_number   '1'                 
_symmetry_cell_setting        'triclinic'         
loop_                         
_symmetry_equiv_pos_as_xyz    
x,y,z                         

loop_                         
_atom_site_label              
_atom_site_type_symbol        
_atom_site_occupancy          
_atom_site_fract_x            
_atom_site_fract_y            
_atom_site_fract_z            
_atom_site_U_iso_or_equiv     
H1        H         1.0     0.41361086          0.17238243          0.58409744          0.0     
O1        O         1.0     0.41591489          0.55480134          0.0                 0.0     
O2        O         1.0     -0.08408511         0.55480134          0.0                 0.0     
O3        O         1.0     0.16591489          0.25573134          0.05820326          0.0     
O4        O         1.0     0.66591489          0.25573134          0.05820326          0.0     
O5        O         1.0     0.16591489          0.85387134          0.05820326          0.0     
O6        O         1.0     0.66591489          0.85387134          0.05820326          0.0     
O7        O         1.0     0.41591489          0.55480134          0.11640652          0.0     
O8        O         1.0     -0.08408511         0.55480134          0.11640652          0.0     
O9        O         1.0     0.41591489          0.05480134          0.14483467          0.0     
O10       O         1.0     -0.08408511         0.05480134          0.14483467          0.0     
O11       O         1.0     0.16591489          0.35387134          0.20303793          0.0     
O12       O         1.0     0.66591489          0.35387134          0.20303793          0.0     
O13       O         1.0     0.16591489          0.75573134          0.20303793          0.0     
O14       O         1.0     0.66591489          0.75573134          0.20303793          0.0     
O15       O         1.0     0.41591489          0.05480134          0.26124119          0.0     
O16       O         1.0     -0.08408511         0.05480134          0.26124119          0.0     
O17       O         1.0     0.42173324          0.55541885          0.28794468          0.0     
O18       O         1.0     -0.08179217         0.55518726          0.29050387          0.0     
O19       O         1.0     0.16552891          0.25804577          0.34831926          0.0     
O20       O         1.0     0.66637335          0.25631838          0.34910763          0.0     
O21       O         1.0     0.16527186          0.85241968          0.34857905          0.0     
O22       O         1.0     0.66623385          0.85410878          0.34936371          0.0     
O23       O         1.0     0.41976532          0.55455951          0.40502333          0.0     
O24       O         1.0     -0.07594685         0.55465828          0.40728934          0.0     
O25       O         1.0     0.40323379          0.05549589          0.43736563          0.0     
O26       O         1.0     -0.08897662         0.05685081          0.43810968          0.0     
O27       O         1.0     0.1394258           0.34647535          0.50669098          0.0     
O28       O         1.0     0.67555269          0.3636483           0.50061743          0.0     
O29       O         1.0     0.13870192          0.76456719          0.50614457          0.0     
O30       O         1.0     0.67474184          0.74883285          0.4998223           0.0     
O31       O         1.0     0.41920499          0.05504838          0.55650197          0.0     
O32       O         1.0     -0.09194373         0.05652946          0.55485727          0.0     
V1        V         1.0     0.41591489          0.05480134          0.05820326          0.0     
V2        V         1.0     -0.08408511         0.05480134          0.05820326          0.0     
V3        V         1.0     0.16591489          0.55480134          0.05820326          0.0     
V4        V         1.0     0.66591489          0.55480134          0.05820326          0.0     
V5        V         1.0     0.16591489          0.05480134          0.20303793          0.0     
V6        V         1.0     0.66591489          0.05480134          0.20303793          0.0     
V7        V         1.0     0.41591489          0.55480134          0.20303793          0.0     
V8        V         1.0     -0.08408511         0.55480134          0.20303793          0.0     
V9        V         1.0     0.425652            0.05479566          0.34840281          0.0     
V10       V         1.0     -0.07367779         0.05597431          0.34723661          0.0     
V11       V         1.0     0.18836036          0.55556302          0.34661336          0.0     
V12       V         1.0     0.66354891          0.55505514          0.34659506          0.0     
V13       V         1.0     0.17342895          0.05470795          0.49235338          0.0     
V14       V         1.0     0.69466294          0.05349637          0.50211586          0.0     
V15       V         1.0     -0.07254962         0.55487969          0.48510588          0.0     
Ir1       Ir        1.0     0.39798263          0.55619725          0.49789669          0.0     
