data_HOV
_audit_creation_method        'pos2cif.py by jyxu'
_cell_length_a                5.64711014          
_cell_length_b                6.450147843790429   
_cell_length_c                22.267278180501698  
_cell_angle_alpha             90.0                
_cell_angle_beta              90.0                
_cell_angle_gamma             90.0                
_symmetry_space_group_H-M     'P1'                
_symmetry_Int_Tables_number   '1'                 
_symmetry_cell_setting        'triclinic'         
loop_                         
_symmetry_equiv_pos_as_xyz    
x,y,z                         

loop_                         
_atom_site_label              
_atom_site_type_symbol        
_atom_site_occupancy          
_atom_site_fract_x            
_atom_site_fract_y            
_atom_site_fract_z            
_atom_site_U_iso_or_equiv     
H1        H         1.0     0.41580081          0.17786905          0.58396419          0.0     
O1        O         1.0     0.41591489          0.55480134          0.0                 0.0     
O2        O         1.0     -0.08408511         0.55480134          0.0                 0.0     
O3        O         1.0     0.16591489          0.25573134          0.05820326          0.0     
O4        O         1.0     0.66591489          0.25573134          0.05820326          0.0     
O5        O         1.0     0.16591489          0.85387134          0.05820326          0.0     
O6        O         1.0     0.66591489          0.85387134          0.05820326          0.0     
O7        O         1.0     0.41591489          0.55480134          0.11640652          0.0     
O8        O         1.0     -0.08408511         0.55480134          0.11640652          0.0     
O9        O         1.0     0.41591489          0.05480134          0.14483467          0.0     
O10       O         1.0     -0.08408511         0.05480134          0.14483467          0.0     
O11       O         1.0     0.16591489          0.35387134          0.20303793          0.0     
O12       O         1.0     0.66591489          0.35387134          0.20303793          0.0     
O13       O         1.0     0.16591489          0.75573134          0.20303793          0.0     
O14       O         1.0     0.66591489          0.75573134          0.20303793          0.0     
O15       O         1.0     0.41591489          0.05480134          0.26124119          0.0     
O16       O         1.0     -0.08408511         0.05480134          0.26124119          0.0     
O17       O         1.0     0.41607509          0.55519128          0.28962882          0.0     
O18       O         1.0     -0.08391709         0.55498214          0.28889942          0.0     
O19       O         1.0     0.16559231          0.25680321          0.34920439          0.0     
O20       O         1.0     0.66591661          0.25684498          0.34921712          0.0     
O21       O         1.0     0.16531854          0.85269659          0.34960764          0.0     
O22       O         1.0     0.66613349          0.85263355          0.34962678          0.0     
O23       O         1.0     0.41611558          0.55392239          0.40745816          0.0     
O24       O         1.0     -0.08389512         0.55316444          0.40845421          0.0     
O25       O         1.0     0.41547035          0.05591392          0.43914718          0.0     
O26       O         1.0     -0.08429229         0.05761407          0.43844948          0.0     
O27       O         1.0     0.16940476          0.36418379          0.50474113          0.0     
O28       O         1.0     0.66250168          0.36426547          0.50476846          0.0     
O29       O         1.0     0.16841279          0.74737258          0.50302039          0.0     
O30       O         1.0     0.6635202           0.74737534          0.50300782          0.0     
O31       O         1.0     0.41601815          0.05432298          0.55882161          0.0     
O32       O         1.0     -0.08418121         0.0561462           0.55191678          0.0     
V1        V         1.0     0.41591489          0.05480134          0.05820326          0.0     
V2        V         1.0     -0.08408511         0.05480134          0.05820326          0.0     
V3        V         1.0     0.16591489          0.55480134          0.05820326          0.0     
V4        V         1.0     0.66591489          0.55480134          0.05820326          0.0     
V5        V         1.0     0.16591489          0.05480134          0.20303793          0.0     
V6        V         1.0     0.66591489          0.05480134          0.20303793          0.0     
V7        V         1.0     0.41591489          0.55480134          0.20303793          0.0     
V8        V         1.0     -0.08408511         0.55480134          0.20303793          0.0     
V9        V         1.0     0.41663946          0.05482237          0.35152716          0.0     
V10       V         1.0     -0.08347433         0.0553735           0.34821753          0.0     
V11       V         1.0     0.16410093          0.55497237          0.34495207          0.0     
V12       V         1.0     0.66866264          0.55496295          0.34495774          0.0     
V13       V         1.0     0.15823757          0.05301299          0.49799109          0.0     
V14       V         1.0     0.6752672           0.05304537          0.49847122          0.0     
V15       V         1.0     0.4160283           0.5556867           0.48566812          0.0     
V16       V         1.0     -0.08398797         0.55379217          0.48690388          0.0     
