data_HOIr
_audit_creation_method        'pos2cif.py'        
_cell_length_a                6.36215693          
_cell_length_b                6.384482994809508   
_cell_length_c                22.021598412435427  
_cell_angle_alpha             90.0                
_cell_angle_beta              90.0                
_cell_angle_gamma             90.0                
_symmetry_space_group_H-M     'P1'                
_symmetry_Int_Tables_number   '1'                 
_symmetry_cell_setting        'triclinic'         
loop_                         
_symmetry_equiv_pos_as_xyz    
x,y,z                         

loop_                         
_atom_site_label              
_atom_site_type_symbol        
_atom_site_occupancy          
_atom_site_fract_x            
_atom_site_fract_y            
_atom_site_fract_z            
_atom_site_U_iso_or_equiv     
H1   H    1.0     -0.58914386         -0.74268618         0.58003066          0.0     
O2   O    1.0     -0.08911189         -0.35545641         0.0                 0.0     
O3   O    1.0     -0.58911189         -0.35545641         0.0                 0.0     
O4   O    1.0     -0.33911189         -0.04692641         0.05551082          0.0     
O5   O    1.0     -0.83911189         -0.04692641         0.05551082          0.0     
O6   O    1.0     -0.33911189         -0.66398641         0.05551082          0.0     
O7   O    1.0     -0.83911189         -0.66398641         0.05551082          0.0     
O8   O    1.0     -0.08911189         -0.35545641         0.11102164          0.0     
O9   O    1.0     -0.58911189         -0.35545641         0.11102164          0.0     
O10  O    1.0     -0.08911189         -0.85545641         0.14495957          0.0     
O11  O    1.0     -0.58911189         -0.85545641         0.14495957          0.0     
O12  O    1.0     -0.33911189         -0.16398641         0.20047039          0.0     
O13  O    1.0     -0.83911189         -0.16398641         0.20047039          0.0     
O14  O    1.0     -0.33911189         -0.54692641         0.20047039          0.0     
O15  O    1.0     -0.83911189         -0.54692641         0.20047039          0.0     
O16  O    1.0     -0.08911189         -0.85545641         0.25598121          0.0     
O17  O    1.0     -0.58911189         -0.85545641         0.25598121          0.0     
O18  O    1.0     -0.08918113         -0.35548604         0.28984761          0.0     
O19  O    1.0     -0.58916675         -0.35559445         0.28973743          0.0     
O20  O    1.0     -0.33944301         -0.04791963         0.3466568           0.0     
O21  O    1.0     -0.83895027         -0.04792494         0.3466514           0.0     
O22  O    1.0     -0.33938372         -0.66515698         0.34620558          0.0     
O23  O    1.0     -0.83899419         -0.66515603         0.3462029           0.0     
O24  O    1.0     -1.0891938          -0.36161754         0.40038918          0.0     
O25  O    1.0     -0.58918325         -0.36026897         0.40023983          0.0     
O26  O    1.0     -1.08923535         -0.85509531         0.43573434          0.0     
O27  O    1.0     -0.58924963         -0.8539143          0.43705874          0.0     
O28  O    1.0     -0.33881739         -0.16152638         0.49583301          0.0     
O29  O    1.0     -0.83968414         -0.16152405         0.49583885          0.0     
O30  O    1.0     -0.33920494         -0.54171065         0.49623664          0.0     
O31  O    1.0     -0.83925872         -0.54170378         0.49623469          0.0     
O32  O    1.0     -1.08924135         -0.8510647          0.54693869          0.0     
O33  O    1.0     -0.58922089         -0.85979185         0.55145635          0.0     
Ir34 Ir   1.0     -0.33911189         -0.35545641         0.05551082          0.0     
Ir35 Ir   1.0     -0.83911189         -0.35545641         0.05551082          0.0     
Ir36 Ir   1.0     -0.08911189         -0.85545641         0.05551082          0.0     
Ir37 Ir   1.0     -0.58911189         -0.85545641         0.05551082          0.0     
Ir38 Ir   1.0     -0.08911189         -0.35545641         0.20047039          0.0     
Ir39 Ir   1.0     -0.58911189         -0.35545641         0.20047039          0.0     
Ir40 Ir   1.0     -0.33911189         -0.85545641         0.20047039          0.0     
Ir41 Ir   1.0     -0.83911189         -0.85545641         0.20047039          0.0     
Ir42 Ir   1.0     -0.33931376         -0.35642525         0.34524803          0.0     
Ir43 Ir   1.0     -0.83904807         -0.35642221         0.34524556          0.0     
Ir44 Ir   1.0     -0.08918106         -0.85637197         0.34592517          0.0     
Ir45 Ir   1.0     -0.58918605         -0.85628266         0.34675937          0.0     
Ir46 Ir   1.0     -1.08924173         -0.35117531         0.48912792          0.0     
Ir47 Ir   1.0     -0.58924569         -0.35031743         0.48892132          0.0     
Ir48 Ir   1.0     -0.33386063         -0.85160459         0.4923812           0.0     
Ir49 Ir   1.0     -0.84460741         -0.85159675         0.49238519          0.0     
