data_OCrRu
_audit_creation_method        'pos2cif.py by jyxu'
_cell_length_a                5.83042985          
_cell_length_b                6.26569034          
_cell_length_c                21.86019992         
_cell_angle_alpha             90.0                
_cell_angle_beta              90.0                
_cell_angle_gamma             90.0                
_symmetry_space_group_H-M     'P1'                
_symmetry_Int_Tables_number   '1'                 
_symmetry_cell_setting        'triclinic'         
loop_                         
_symmetry_equiv_pos_as_xyz    
x,y,z                         

loop_                         
_atom_site_label              
_atom_site_type_symbol        
_atom_site_occupancy          
_atom_site_fract_x            
_atom_site_fract_y            
_atom_site_fract_z            
_atom_site_U_iso_or_equiv     
O1        O         1.0     0.0                 0.5                 0.0                 0.0     
O2        O         1.0     0.5                 0.5                 0.0                 0.0     
O3        O         1.0     0.25                0.19644             0.0563              0.0     
O4        O         1.0     0.75                0.19644             0.0563              0.0     
O5        O         1.0     0.25                0.80356             0.0563              0.0     
O6        O         1.0     0.75                0.80356             0.0563              0.0     
O7        O         1.0     0.0                 0.5                 0.11261             0.0     
O8        O         1.0     0.5                 0.5                 0.11261             0.0     
O9        O         1.0     0.5                 0.0                 0.14331             0.0     
O10       O         1.0     0.0                 0.0                 0.14331             0.0     
O11       O         1.0     0.25                0.30356             0.19962             0.0     
O12       O         1.0     0.75                0.30356             0.19962             0.0     
O13       O         1.0     0.25                0.69644             0.19962             0.0     
O14       O         1.0     0.75                0.69644             0.19962             0.0     
O15       O         1.0     0.0                 0.0                 0.25592             0.0     
O16       O         1.0     0.5                 0.0                 0.25592             0.0     
O17       O         1.0     -1.39e-06           0.50000003          0.28615888          0.0     
O18       O         1.0     0.5000166           0.50000003          0.28616524          0.0     
O19       O         1.0     0.25031407          0.19682748          0.34367039          0.0     
O20       O         1.0     0.74974192          0.19677993          0.34368571          0.0     
O21       O         1.0     0.25031404          0.80317253          0.34367041          0.0     
O22       O         1.0     0.74974193          0.80322009          0.34368573          0.0     
O23       O         1.0     3.993e-05           0.49999995          0.39786534          0.0     
O24       O         1.0     0.50001968          0.49999999          0.39951751          0.0     
O25       O         1.0     0.00039227          1e-08               0.4319998           0.0     
O26       O         1.0     0.49994908          0.0                 0.43176861          0.0     
O27       O         1.0     0.23867141          0.30680666          0.4937547           0.0     
O28       O         1.0     0.76138133          0.30681455          0.49370628          0.0     
O29       O         1.0     0.23867143          0.69319326          0.49375468          0.0     
O30       O         1.0     0.76138135          0.6931853           0.4937063           0.0     
O31       O         1.0     0.0005583           2e-08               0.54520263          0.0     
O32       O         1.0     0.49929812          -5e-08              0.54024491          0.0     
Cr1       Cr        1.0     0.0                 0.0                 0.0563              0.0     
Cr2       Cr        1.0     0.5                 0.0                 0.0563              0.0     
Cr3       Cr        1.0     0.25                0.5                 0.0563              0.0     
Cr4       Cr        1.0     0.75                0.5                 0.0563              0.0     
Cr5       Cr        1.0     0.25                0.0                 0.19962             0.0     
Cr6       Cr        1.0     0.75                0.0                 0.19962             0.0     
Cr7       Cr        1.0     0.0                 0.5                 0.19962             0.0     
Cr8       Cr        1.0     0.5                 0.5                 0.19962             0.0     
Cr9       Cr        1.0     0.25121044          0.50000001          0.34025951          0.0     
Cr10      Cr        1.0     0.74879978          0.49999999          0.34026287          0.0     
Cr11      Cr        1.0     0.4999933           2e-08               0.34706349          0.0     
Cr12      Cr        1.0     0.00012386          1e-08               0.34538891          0.0     
Cr13      Cr        1.0     5.868e-05           0.49999994          0.47784489          0.0     
Cr14      Cr        1.0     0.24351883          -8e-08              0.49488673          0.0     
Cr15      Cr        1.0     0.75578152          -9e-08              0.49396017          0.0     
Ru1       Ru        1.0     0.49998045          0.49999995          0.48420803          0.0     
