data_OIrMo
_audit_creation_method        'pos2cif.py'        
_cell_length_a                6.36215693          
_cell_length_b                6.384482994809508   
_cell_length_c                22.021598412435427  
_cell_angle_alpha             90.0                
_cell_angle_beta              90.0                
_cell_angle_gamma             90.0                
_symmetry_space_group_H-M     'P1'                
_symmetry_Int_Tables_number   '1'                 
_symmetry_cell_setting        'triclinic'         
loop_                         
_symmetry_equiv_pos_as_xyz    
x,y,z                         

loop_                         
_atom_site_label              
_atom_site_type_symbol        
_atom_site_occupancy          
_atom_site_fract_x            
_atom_site_fract_y            
_atom_site_fract_z            
_atom_site_U_iso_or_equiv     
O1   O    1.0     -0.08911189         -0.35545641         0.0                 0.0     
O2   O    1.0     -0.58911189         -0.35545641         0.0                 0.0     
O3   O    1.0     -0.33911189         -0.04692641         0.05551082          0.0     
O4   O    1.0     -0.83911189         -0.04692641         0.05551082          0.0     
O5   O    1.0     -0.33911189         -0.66398641         0.05551082          0.0     
O6   O    1.0     -0.83911189         -0.66398641         0.05551082          0.0     
O7   O    1.0     -0.08911189         -0.35545641         0.11102164          0.0     
O8   O    1.0     -0.58911189         -0.35545641         0.11102164          0.0     
O9   O    1.0     -0.08911189         -0.85545641         0.14495957          0.0     
O10  O    1.0     -0.58911189         -0.85545641         0.14495957          0.0     
O11  O    1.0     -0.33911189         -0.16398641         0.20047039          0.0     
O12  O    1.0     -0.83911189         -0.16398641         0.20047039          0.0     
O13  O    1.0     -0.33911189         -0.54692641         0.20047039          0.0     
O14  O    1.0     -0.83911189         -0.54692641         0.20047039          0.0     
O15  O    1.0     -0.08911189         -0.85545641         0.25598121          0.0     
O16  O    1.0     -0.58911189         -0.85545641         0.25598121          0.0     
O17  O    1.0     -0.08915294         -0.35542207         0.28972563          0.0     
O18  O    1.0     -0.58916067         -0.35546351         0.28915809          0.0     
O19  O    1.0     -0.33922672         -0.04663916         0.34620217          0.0     
O20  O    1.0     -0.83909183         -0.04662986         0.34620209          0.0     
O21  O    1.0     -0.33920651         -0.66424451         0.34619243          0.0     
O22  O    1.0     -0.83908095         -0.66423773         0.34619222          0.0     
O23  O    1.0     -1.08916521         -0.35562483         0.40053054          0.0     
O24  O    1.0     -0.58916824         -0.35549067         0.40061627          0.0     
O25  O    1.0     -1.08916236         -0.85546441         0.43616911          0.0     
O26  O    1.0     -0.5891273          -0.85547165         0.43649523          0.0     
O27  O    1.0     -0.34449133         -0.16547229         0.49387706          0.0     
O28  O    1.0     -0.83371104         -0.16542064         0.49387194          0.0     
O29  O    1.0     -0.34450409         -0.54554024         0.49389049          0.0     
O30  O    1.0     -0.833701           -0.54551317         0.49390761          0.0     
O31  O    1.0     -1.08912137         -0.85552411         0.54710341          0.0     
O32  O    1.0     -0.58911374         -0.85551197         0.54732305          0.0     
Ir33 Ir   1.0     -0.33911189         -0.35545641         0.05551082          0.0     
Ir34 Ir   1.0     -0.83911189         -0.35545641         0.05551082          0.0     
Ir35 Ir   1.0     -0.08911189         -0.85545641         0.05551082          0.0     
Ir36 Ir   1.0     -0.58911189         -0.85545641         0.05551082          0.0     
Ir37 Ir   1.0     -0.08911189         -0.35545641         0.20047039          0.0     
Ir38 Ir   1.0     -0.58911189         -0.35545641         0.20047039          0.0     
Ir39 Ir   1.0     -0.33911189         -0.85545641         0.20047039          0.0     
Ir40 Ir   1.0     -0.83911189         -0.85545641         0.20047039          0.0     
Ir41 Ir   1.0     -0.33863067         -0.3554403          0.34467118          0.0     
Ir42 Ir   1.0     -0.83969076         -0.3554301          0.3446703           0.0     
Ir43 Ir   1.0     -0.08914145         -0.85543776         0.34657911          0.0     
Ir44 Ir   1.0     -0.58913255         -0.85543497         0.34647586          0.0     
Ir45 Ir   1.0     -1.08909361         -0.35547618         0.48946279          0.0     
Ir46 Ir   1.0     -0.33817751         -0.85549263         0.4933657           0.0     
Ir47 Ir   1.0     -0.84006989         -0.85546488         0.49336219          0.0     
Mo48 Mo   1.0     -0.5890973          -0.35547573         0.48587583          0.0     
