data_OIrV
_audit_creation_method        'pos2cif.py'        
_cell_length_a                6.36215693          
_cell_length_b                6.384482994809508   
_cell_length_c                22.021598412435427  
_cell_angle_alpha             90.0                
_cell_angle_beta              90.0                
_cell_angle_gamma             90.0                
_symmetry_space_group_H-M     'P1'                
_symmetry_Int_Tables_number   '1'                 
_symmetry_cell_setting        'triclinic'         
loop_                         
_symmetry_equiv_pos_as_xyz    
x,y,z                         

loop_                         
_atom_site_label              
_atom_site_type_symbol        
_atom_site_occupancy          
_atom_site_fract_x            
_atom_site_fract_y            
_atom_site_fract_z            
_atom_site_U_iso_or_equiv     
O1   O    1.0     -0.08911189         -0.35545641         0.0                 0.0     
O2   O    1.0     -0.58911189         -0.35545641         0.0                 0.0     
O3   O    1.0     -0.33911189         -0.04692641         0.05551082          0.0     
O4   O    1.0     -0.83911189         -0.04692641         0.05551082          0.0     
O5   O    1.0     -0.33911189         -0.66398641         0.05551082          0.0     
O6   O    1.0     -0.83911189         -0.66398641         0.05551082          0.0     
O7   O    1.0     -0.08911189         -0.35545641         0.11102164          0.0     
O8   O    1.0     -0.58911189         -0.35545641         0.11102164          0.0     
O9   O    1.0     -0.08911189         -0.85545641         0.14495957          0.0     
O10  O    1.0     -0.58911189         -0.85545641         0.14495957          0.0     
O11  O    1.0     -0.33911189         -0.16398641         0.20047039          0.0     
O12  O    1.0     -0.83911189         -0.16398641         0.20047039          0.0     
O13  O    1.0     -0.33911189         -0.54692641         0.20047039          0.0     
O14  O    1.0     -0.83911189         -0.54692641         0.20047039          0.0     
O15  O    1.0     -0.08911189         -0.85545641         0.25598121          0.0     
O16  O    1.0     -0.58911189         -0.85545641         0.25598121          0.0     
O17  O    1.0     -0.08914567         -0.35545901         0.28983428          0.0     
O18  O    1.0     -0.58916061         -0.35546273         0.28942128          0.0     
O19  O    1.0     -0.33938433         -0.04671901         0.34603279          0.0     
O20  O    1.0     -0.83891676         -0.04671454         0.3460406           0.0     
O21  O    1.0     -0.33936567         -0.6641758          0.3460298           0.0     
O22  O    1.0     -0.83890441         -0.66417422         0.34602843          0.0     
O23  O    1.0     -1.08915122         -0.3555132          0.40029254          0.0     
O24  O    1.0     -0.58912761         -0.3554353          0.40118308          0.0     
O25  O    1.0     -1.08913413         -0.85547165         0.43602634          0.0     
O26  O    1.0     -0.58913579         -0.85548861         0.43571248          0.0     
O27  O    1.0     -0.3502273          -0.16900231         0.4923242           0.0     
O28  O    1.0     -0.82781743         -0.16899118         0.49234353          0.0     
O29  O    1.0     -0.35022908         -0.54195899         0.49232777          0.0     
O30  O    1.0     -0.82777434         -0.54196538         0.49236091          0.0     
O31  O    1.0     -1.08913427         -0.8555054          0.54578213          0.0     
O32  O    1.0     -0.58912755         -0.85550222         0.54612135          0.0     
Ir33 Ir   1.0     -0.33911189         -0.35545641         0.05551082          0.0     
Ir34 Ir   1.0     -0.83911189         -0.35545641         0.05551082          0.0     
Ir35 Ir   1.0     -0.08911189         -0.85545641         0.05551082          0.0     
Ir36 Ir   1.0     -0.58911189         -0.85545641         0.05551082          0.0     
Ir37 Ir   1.0     -0.08911189         -0.35545641         0.20047039          0.0     
Ir38 Ir   1.0     -0.58911189         -0.35545641         0.20047039          0.0     
Ir39 Ir   1.0     -0.33911189         -0.85545641         0.20047039          0.0     
Ir40 Ir   1.0     -0.83911189         -0.85545641         0.20047039          0.0     
Ir41 Ir   1.0     -0.33958332         -0.35544055         0.3449684           0.0     
Ir42 Ir   1.0     -0.83872308         -0.35544158         0.34497056          0.0     
Ir43 Ir   1.0     -0.0891355          -0.85544202         0.34655127          0.0     
Ir44 Ir   1.0     -0.58914022         -0.85544623         0.34625543          0.0     
Ir45 Ir   1.0     -1.08898424         -0.35548129         0.48796502          0.0     
Ir46 Ir   1.0     -0.33955619         -0.85547504         0.49249565          0.0     
Ir47 Ir   1.0     -0.83866851         -0.85546949         0.49250013          0.0     
V48  V    1.0     -0.5890064          -0.35545903         0.48294974          0.0     
