data_ORhIr
_audit_creation_method        'pos2cif.py by jyxu'
_cell_length_a                6.36215693          
_cell_length_b                6.38448299          
_cell_length_c                22.02159841         
_cell_angle_alpha             90.0                
_cell_angle_beta              90.0                
_cell_angle_gamma             90.0                
_symmetry_space_group_H-M     'P1'                
_symmetry_Int_Tables_number   '1'                 
_symmetry_cell_setting        'triclinic'         
loop_                         
_symmetry_equiv_pos_as_xyz    
x,y,z                         

loop_                         
_atom_site_label              
_atom_site_type_symbol        
_atom_site_occupancy          
_atom_site_fract_x            
_atom_site_fract_y            
_atom_site_fract_z            
_atom_site_U_iso_or_equiv     
O1        O         1.0     -0.08911            0.64454             0.0                 0.0     
O2        O         1.0     0.41089             0.64454             0.0                 0.0     
O3        O         1.0     0.66089             -0.04693            0.05551             0.0     
O4        O         1.0     0.16089             -0.04693            0.05551             0.0     
O5        O         1.0     0.66089             0.33601             0.05551             0.0     
O6        O         1.0     0.16089             0.33601             0.05551             0.0     
O7        O         1.0     -0.08911            0.64454             0.11102             0.0     
O8        O         1.0     0.41089             0.64454             0.11102             0.0     
O9        O         1.0     0.41089             0.14454             0.14496             0.0     
O10       O         1.0     -0.08911            0.14454             0.14496             0.0     
O11       O         1.0     0.66089             0.83601             0.20047             0.0     
O12       O         1.0     0.16089             0.83601             0.20047             0.0     
O13       O         1.0     0.66089             0.45307             0.20047             0.0     
O14       O         1.0     0.16089             0.45307             0.20047             0.0     
O15       O         1.0     -0.08911            0.14454             0.25598             0.0     
O16       O         1.0     0.41089             0.14454             0.25598             0.0     
O17       O         1.0     -0.08914513         0.64459463          0.28956124          0.0     
O18       O         1.0     0.41085549          0.6445975           0.28949598          0.0     
O19       O         1.0     0.66074841          -0.04681334         0.34604715          0.0     
O20       O         1.0     0.16097887          -0.04681053         0.34604727          0.0     
O21       O         1.0     0.66076184          0.33591555          0.34602119          0.0     
O22       O         1.0     0.16098647          0.33591633          0.34602129          0.0     
O23       O         1.0     -0.0891615          0.64425846          0.39990057          0.0     
O24       O         1.0     0.4108568           0.64424672          0.39956058          0.0     
O25       O         1.0     -0.08915725         0.14450749          0.43619471          0.0     
O26       O         1.0     0.41084109          0.14451165          0.43601617          0.0     
O27       O         1.0     0.66225817          0.83565115          0.49412993          0.0     
O28       O         1.0     0.15946106          0.83565255          0.49413306          0.0     
O29       O         1.0     0.66224918          0.45343664          0.49412905          0.0     
O30       O         1.0     0.15943729          0.45343152          0.49413047          0.0     
O31       O         1.0     -0.0891472          0.14451688          0.54666808          0.0     
O32       O         1.0     0.41086114          0.14451141          0.54646051          0.0     
Rh1       Rh        1.0     0.41086251          0.64457137          0.48845526          0.0     
Ir1       Ir        1.0     0.66089             0.64454             0.05551             0.0     
Ir2       Ir        1.0     0.16089             0.64454             0.05551             0.0     
Ir3       Ir        1.0     -0.08911            0.14454             0.05551             0.0     
Ir4       Ir        1.0     0.41089             0.14454             0.05551             0.0     
Ir5       Ir        1.0     -0.08911            0.64454             0.20047             0.0     
Ir6       Ir        1.0     0.41089             0.64454             0.20047             0.0     
Ir7       Ir        1.0     0.66089             0.14454             0.20047             0.0     
Ir8       Ir        1.0     0.16089             0.14454             0.20047             0.0     
Ir9       Ir        1.0     0.16152701          0.64456591          0.345035            0.0     
Ir10      Ir        1.0     0.66018543          0.64456715          0.34503502          0.0     
Ir11      Ir        1.0     -0.08911996         0.14456             0.34641042          0.0     
Ir12      Ir        1.0     0.41088             0.14456065          0.34638565          0.0     
Ir13      Ir        1.0     -0.0891329          0.64455863          0.4877873           0.0     
Ir14      Ir        1.0     0.66065462          0.14455708          0.49289001          0.0     
Ir15      Ir        1.0     0.1610502           0.14455525          0.49289019          0.0     
