data_OIrV
_audit_creation_method        'pos2cif.py'        
_cell_length_a                6.36215693          
_cell_length_b                6.384482994809508   
_cell_length_c                22.021598412435427  
_cell_angle_alpha             90.0                
_cell_angle_beta              90.0                
_cell_angle_gamma             90.0                
_symmetry_space_group_H-M     'P1'                
_symmetry_Int_Tables_number   '1'                 
_symmetry_cell_setting        'triclinic'         
loop_                         
_symmetry_equiv_pos_as_xyz    
x,y,z                         

loop_                         
_atom_site_label              
_atom_site_type_symbol        
_atom_site_occupancy          
_atom_site_fract_x            
_atom_site_fract_y            
_atom_site_fract_z            
_atom_site_U_iso_or_equiv     
O1   O    1.0     0.08911189          0.64454359          0.0                 0.0     
O2   O    1.0     0.58911189          0.64454359          0.0                 0.0     
O3   O    1.0     0.33911189          0.95307359          0.05551082          0.0     
O4   O    1.0     0.83911189          0.95307359          0.05551082          0.0     
O5   O    1.0     0.33911189          0.33601359          0.05551082          0.0     
O6   O    1.0     0.83911189          0.33601359          0.05551082          0.0     
O7   O    1.0     0.08911189          0.64454359          0.11102164          0.0     
O8   O    1.0     0.58911189          0.64454359          0.11102164          0.0     
O9   O    1.0     0.08911189          0.14454359          0.14495957          0.0     
O10  O    1.0     0.58911189          0.14454359          0.14495957          0.0     
O11  O    1.0     0.33911189          0.83601359          0.20047039          0.0     
O12  O    1.0     0.83911189          0.83601359          0.20047039          0.0     
O13  O    1.0     0.33911189          0.45307359          0.20047039          0.0     
O14  O    1.0     0.83911189          0.45307359          0.20047039          0.0     
O15  O    1.0     0.08911189          0.14454359          0.25598121          0.0     
O16  O    1.0     0.58911189          0.14454359          0.25598121          0.0     
O17  O    1.0     0.08914567          0.64454099          0.28983428          0.0     
O18  O    1.0     0.58916061          0.64453727          0.28942128          0.0     
O19  O    1.0     0.33938433          0.95328099          0.34603279          0.0     
O20  O    1.0     0.83891676          0.95328546          0.3460406           0.0     
O21  O    1.0     0.33936567          0.3358242           0.3460298           0.0     
O22  O    1.0     0.83890441          0.33582578          0.34602843          0.0     
O23  O    1.0     0.08915122          0.6444868           0.40029254          0.0     
O24  O    1.0     0.58912761          0.6445647           0.40118308          0.0     
O25  O    1.0     0.08913413          0.14452835          0.43602634          0.0     
O26  O    1.0     0.58913579          0.14451139          0.43571248          0.0     
O27  O    1.0     0.3502273           0.83099769          0.4923242           0.0     
O28  O    1.0     0.82781743          0.83100882          0.49234353          0.0     
O29  O    1.0     0.35022908          0.45804101          0.49232777          0.0     
O30  O    1.0     0.82777434          0.45803462          0.49236091          0.0     
O31  O    1.0     0.08913427          0.1444946           0.54578213          0.0     
O32  O    1.0     0.58912755          0.14449778          0.54612135          0.0     
Ir33 Ir   1.0     0.33911189          0.64454359          0.05551082          0.0     
Ir34 Ir   1.0     0.83911189          0.64454359          0.05551082          0.0     
Ir35 Ir   1.0     0.08911189          0.14454359          0.05551082          0.0     
Ir36 Ir   1.0     0.58911189          0.14454359          0.05551082          0.0     
Ir37 Ir   1.0     0.08911189          0.64454359          0.20047039          0.0     
Ir38 Ir   1.0     0.58911189          0.64454359          0.20047039          0.0     
Ir39 Ir   1.0     0.33911189          0.14454359          0.20047039          0.0     
Ir40 Ir   1.0     0.83911189          0.14454359          0.20047039          0.0     
Ir41 Ir   1.0     0.33958332          0.64455945          0.3449684           0.0     
Ir42 Ir   1.0     0.83872308          0.64455842          0.34497056          0.0     
Ir43 Ir   1.0     0.0891355           0.14455798          0.34655127          0.0     
Ir44 Ir   1.0     0.58914022          0.14455377          0.34625543          0.0     
Ir45 Ir   1.0     0.08898424          0.64451871          0.48796502          0.0     
Ir46 Ir   1.0     0.33955619          0.14452496          0.49249565          0.0     
Ir47 Ir   1.0     0.83866851          0.14453051          0.49250013          0.0     
V48  V    1.0     0.5890064           0.64454097          0.48294974          0.0     
