data_ORhIr
_audit_creation_method        'pos2cif.py'        
_cell_length_a                6.36215693          
_cell_length_b                6.38448299          
_cell_length_c                22.02159841         
_cell_angle_alpha             90.0                
_cell_angle_beta              90.0                
_cell_angle_gamma             90.0                
_symmetry_space_group_H-M     'P1'                
_symmetry_Int_Tables_number   '1'                 
_symmetry_cell_setting        'triclinic'         
loop_                         
_symmetry_equiv_pos_as_xyz    
x,y,z                         

loop_                         
_atom_site_label              
_atom_site_type_symbol        
_atom_site_occupancy          
_atom_site_fract_x            
_atom_site_fract_y            
_atom_site_fract_z            
_atom_site_U_iso_or_equiv     
O1   O    1.0     -0.08911            -0.35546            0.0                 0.0     
O2   O    1.0     -0.58911            -0.35546            0.0                 0.0     
O3   O    1.0     -0.33911            -0.04693            0.05551             0.0     
O4   O    1.0     -0.83911            -0.04693            0.05551             0.0     
O5   O    1.0     -0.33911            -0.66399            0.05551             0.0     
O6   O    1.0     -0.83911            -0.66399            0.05551             0.0     
O7   O    1.0     -0.08911            -0.35546            0.11102             0.0     
O8   O    1.0     -0.58911            -0.35546            0.11102             0.0     
O9   O    1.0     -0.58911            -0.85546            0.14496             0.0     
O10  O    1.0     -0.08911            -0.85546            0.14496             0.0     
O11  O    1.0     -0.33911            -0.16399            0.20047             0.0     
O12  O    1.0     -0.83911            -0.16399            0.20047             0.0     
O13  O    1.0     -0.33911            -0.54693            0.20047             0.0     
O14  O    1.0     -0.83911            -0.54693            0.20047             0.0     
O15  O    1.0     -0.08911            -0.85546            0.25598             0.0     
O16  O    1.0     -0.58911            -0.85546            0.25598             0.0     
O17  O    1.0     -0.08914513         -0.35540537         0.28956124          0.0     
O18  O    1.0     -0.58914451         -0.3554025          0.28949598          0.0     
O19  O    1.0     -0.33925159         -0.04681334         0.34604715          0.0     
O20  O    1.0     -0.83902113         -0.04681053         0.34604727          0.0     
O21  O    1.0     -0.33923816         -0.66408445         0.34602119          0.0     
O22  O    1.0     -0.83901353         -0.66408367         0.34602129          0.0     
O23  O    1.0     -1.0891615          -0.35574154         0.39990057          0.0     
O24  O    1.0     -0.5891432          -0.35575328         0.39956058          0.0     
O25  O    1.0     -1.08915725         -0.85549251         0.43619471          0.0     
O26  O    1.0     -0.58915891         -0.85548835         0.43601617          0.0     
O27  O    1.0     -0.33774183         -0.16434885         0.49412993          0.0     
O28  O    1.0     -0.84053894         -0.16434745         0.49413306          0.0     
O29  O    1.0     -0.33775082         -0.54656336         0.49412905          0.0     
O30  O    1.0     -0.84056271         -0.54656848         0.49413047          0.0     
O31  O    1.0     -1.0891472          -0.85548312         0.54666808          0.0     
O32  O    1.0     -0.58913886         -0.85548859         0.54646051          0.0     
Rh33 Rh   1.0     -0.58913749         -0.35542863         0.48845526          0.0     
Ir34 Ir   1.0     -0.33911            -0.35546            0.05551             0.0     
Ir35 Ir   1.0     -0.83911            -0.35546            0.05551             0.0     
Ir36 Ir   1.0     -0.08911            -0.85546            0.05551             0.0     
Ir37 Ir   1.0     -0.58911            -0.85546            0.05551             0.0     
Ir38 Ir   1.0     -0.08911            -0.35546            0.20047             0.0     
Ir39 Ir   1.0     -0.58911            -0.35546            0.20047             0.0     
Ir40 Ir   1.0     -0.33911            -0.85546            0.20047             0.0     
Ir41 Ir   1.0     -0.83911            -0.85546            0.20047             0.0     
Ir42 Ir   1.0     -0.83847299         -0.35543409         0.345035            0.0     
Ir43 Ir   1.0     -0.33981457         -0.35543285         0.34503502          0.0     
Ir44 Ir   1.0     -0.08911996         -0.85544            0.34641042          0.0     
Ir45 Ir   1.0     -0.58912            -0.85543935         0.34638565          0.0     
Ir46 Ir   1.0     -1.0891329          -0.35544137         0.4877873           0.0     
Ir47 Ir   1.0     -0.33934538         -0.85544292         0.49289001          0.0     
Ir48 Ir   1.0     -0.8389498          -0.85544475         0.49289019          0.0     
