data_OIrMo
_audit_creation_method        'pos2cif.py by jyxu'
_cell_length_a                6.36215693          
_cell_length_b                6.384482994809508   
_cell_length_c                22.021598412435427  
_cell_angle_alpha             90.0                
_cell_angle_beta              90.0                
_cell_angle_gamma             90.0                
_symmetry_space_group_H-M     'P1'                
_symmetry_Int_Tables_number   '1'                 
_symmetry_cell_setting        'triclinic'         
loop_                         
_symmetry_equiv_pos_as_xyz    
x,y,z                         

loop_                         
_atom_site_label              
_atom_site_type_symbol        
_atom_site_occupancy          
_atom_site_fract_x            
_atom_site_fract_y            
_atom_site_fract_z            
_atom_site_U_iso_or_equiv     
O1        O         1.0     -0.08911189         0.64454359          0.0                 0.0     
O2        O         1.0     0.41088811          0.64454359          0.0                 0.0     
O3        O         1.0     0.66088811          -0.04692641         0.05551082          0.0     
O4        O         1.0     0.16088811          -0.04692641         0.05551082          0.0     
O5        O         1.0     0.66088811          0.33601359          0.05551082          0.0     
O6        O         1.0     0.16088811          0.33601359          0.05551082          0.0     
O7        O         1.0     -0.08911189         0.64454359          0.11102164          0.0     
O8        O         1.0     0.41088811          0.64454359          0.11102164          0.0     
O9        O         1.0     -0.08911189         0.14454359          0.14495957          0.0     
O10       O         1.0     0.41088811          0.14454359          0.14495957          0.0     
O11       O         1.0     0.66088811          0.83601359          0.20047039          0.0     
O12       O         1.0     0.16088811          0.83601359          0.20047039          0.0     
O13       O         1.0     0.66088811          0.45307359          0.20047039          0.0     
O14       O         1.0     0.16088811          0.45307359          0.20047039          0.0     
O15       O         1.0     -0.08911189         0.14454359          0.25598121          0.0     
O16       O         1.0     0.41088811          0.14454359          0.25598121          0.0     
O17       O         1.0     -0.08915294         0.64457793          0.28972563          0.0     
O18       O         1.0     0.41083933          0.64453649          0.28915809          0.0     
O19       O         1.0     0.66077328          -0.04663916         0.34620217          0.0     
O20       O         1.0     0.16090817          -0.04662986         0.34620209          0.0     
O21       O         1.0     0.66079349          0.33575549          0.34619243          0.0     
O22       O         1.0     0.16091905          0.33576227          0.34619222          0.0     
O23       O         1.0     -0.08916521         0.64437517          0.40053054          0.0     
O24       O         1.0     0.41083176          0.64450933          0.40061627          0.0     
O25       O         1.0     -0.08916236         0.14453559          0.43616911          0.0     
O26       O         1.0     0.4108727           0.14452835          0.43649523          0.0     
O27       O         1.0     0.65550867          0.83452771          0.49387706          0.0     
O28       O         1.0     0.16628896          0.83457936          0.49387194          0.0     
O29       O         1.0     0.65549591          0.45445976          0.49389049          0.0     
O30       O         1.0     0.166299            0.45448683          0.49390761          0.0     
O31       O         1.0     -0.08912137         0.14447589          0.54710341          0.0     
O32       O         1.0     0.41088626          0.14448803          0.54732305          0.0     
Ir1       Ir        1.0     0.66088811          0.64454359          0.05551082          0.0     
Ir2       Ir        1.0     0.16088811          0.64454359          0.05551082          0.0     
Ir3       Ir        1.0     -0.08911189         0.14454359          0.05551082          0.0     
Ir4       Ir        1.0     0.41088811          0.14454359          0.05551082          0.0     
Ir5       Ir        1.0     -0.08911189         0.64454359          0.20047039          0.0     
Ir6       Ir        1.0     0.41088811          0.64454359          0.20047039          0.0     
Ir7       Ir        1.0     0.66088811          0.14454359          0.20047039          0.0     
Ir8       Ir        1.0     0.16088811          0.14454359          0.20047039          0.0     
Ir9       Ir        1.0     0.66136933          0.6445597           0.34467118          0.0     
Ir10      Ir        1.0     0.16030924          0.6445699           0.3446703           0.0     
Ir11      Ir        1.0     -0.08914145         0.14456224          0.34657911          0.0     
Ir12      Ir        1.0     0.41086745          0.14456503          0.34647586          0.0     
Ir13      Ir        1.0     -0.08909361         0.64452382          0.48946279          0.0     
Ir14      Ir        1.0     0.66182249          0.14450737          0.4933657           0.0     
Ir15      Ir        1.0     0.15993011          0.14453512          0.49336219          0.0     
Mo1       Mo        1.0     0.4109027           0.64452427          0.48587583          0.0     
