data_OOsIr
_audit_creation_method        'pos2cif.py'        
_cell_length_a                6.36215693          
_cell_length_b                6.38448299          
_cell_length_c                22.02159841         
_cell_angle_alpha             90.0                
_cell_angle_beta              90.0                
_cell_angle_gamma             90.0                
_symmetry_space_group_H-M     'P1'                
_symmetry_Int_Tables_number   '1'                 
_symmetry_cell_setting        'triclinic'         
loop_                         
_symmetry_equiv_pos_as_xyz    
x,y,z                         

loop_                         
_atom_site_label              
_atom_site_type_symbol        
_atom_site_occupancy          
_atom_site_fract_x            
_atom_site_fract_y            
_atom_site_fract_z            
_atom_site_U_iso_or_equiv     
O1   O    1.0     -0.08911            -0.35546            0.0                 0.0     
O2   O    1.0     -0.58911            -0.35546            0.0                 0.0     
O3   O    1.0     -0.33911            -0.04693            0.05551             0.0     
O4   O    1.0     -0.83911            -0.04693            0.05551             0.0     
O5   O    1.0     -0.33911            -0.66399            0.05551             0.0     
O6   O    1.0     -0.83911            -0.66399            0.05551             0.0     
O7   O    1.0     -0.08911            -0.35546            0.11102             0.0     
O8   O    1.0     -0.58911            -0.35546            0.11102             0.0     
O9   O    1.0     -0.58911            -0.85546            0.14496             0.0     
O10  O    1.0     -0.08911            -0.85546            0.14496             0.0     
O11  O    1.0     -0.33911            -0.16399            0.20047             0.0     
O12  O    1.0     -0.83911            -0.16399            0.20047             0.0     
O13  O    1.0     -0.33911            -0.54693            0.20047             0.0     
O14  O    1.0     -0.83911            -0.54693            0.20047             0.0     
O15  O    1.0     -0.08911            -0.85546            0.25598             0.0     
O16  O    1.0     -0.58911            -0.85546            0.25598             0.0     
O17  O    1.0     -0.08914324         -0.35538738         0.28989544          0.0     
O18  O    1.0     -0.58914642         -0.35541046         0.28955233          0.0     
O19  O    1.0     -0.33914139         -0.04666739         0.34614478          0.0     
O20  O    1.0     -0.83913393         -0.04666966         0.34614397          0.0     
O21  O    1.0     -0.33914954         -0.66425177         0.34611028          0.0     
O22  O    1.0     -0.83913011         -0.66424854         0.34611094          0.0     
O23  O    1.0     -1.08915233         -0.35576595         0.40079055          0.0     
O24  O    1.0     -0.58913593         -0.35561356         0.40098502          0.0     
O25  O    1.0     -1.08916196         -0.85548081         0.43588797          0.0     
O26  O    1.0     -0.58916028         -0.85548218         0.43621491          0.0     
O27  O    1.0     -0.34338372         -0.16606899         0.49337373          0.0     
O28  O    1.0     -0.83492467         -0.16607435         0.49337082          0.0     
O29  O    1.0     -0.34336749         -0.54488076         0.49337116          0.0     
O30  O    1.0     -0.83493318         -0.54488265         0.49337825          0.0     
O31  O    1.0     -1.08915025         -0.85549171         0.54666303          0.0     
O32  O    1.0     -0.58914988         -0.85547397         0.54704495          0.0     
Os33 Os   1.0     -0.58914769         -0.35547086         0.48650301          0.0     
Ir34 Ir   1.0     -0.33911            -0.35546            0.05551             0.0     
Ir35 Ir   1.0     -0.83911            -0.35546            0.05551             0.0     
Ir36 Ir   1.0     -0.08911            -0.85546            0.05551             0.0     
Ir37 Ir   1.0     -0.58911            -0.85546            0.05551             0.0     
Ir38 Ir   1.0     -0.08911            -0.35546            0.20047             0.0     
Ir39 Ir   1.0     -0.58911            -0.35546            0.20047             0.0     
Ir40 Ir   1.0     -0.33911            -0.85546            0.20047             0.0     
Ir41 Ir   1.0     -0.83911            -0.85546            0.20047             0.0     
Ir42 Ir   1.0     -0.83951984         -0.35544771         0.34518122          0.0     
Ir43 Ir   1.0     -0.33876814         -0.35544738         0.34518054          0.0     
Ir44 Ir   1.0     -0.0891288          -0.85545149         0.34634074          0.0     
Ir45 Ir   1.0     -0.58912883         -0.85545145         0.34640981          0.0     
Ir46 Ir   1.0     -1.0891498          -0.35545642         0.48977263          0.0     
Ir47 Ir   1.0     -0.33900205         -0.85545483         0.49297436          0.0     
Ir48 Ir   1.0     -0.83929928         -0.85545377         0.49297469          0.0     
