data_OIrGe
_audit_creation_method        'pos2cif.py'        
_cell_length_a                6.36215693          
_cell_length_b                6.384482994809508   
_cell_length_c                22.021598412435427  
_cell_angle_alpha             90.0                
_cell_angle_beta              90.0                
_cell_angle_gamma             90.0                
_symmetry_space_group_H-M     'P1'                
_symmetry_Int_Tables_number   '1'                 
_symmetry_cell_setting        'triclinic'         
loop_                         
_symmetry_equiv_pos_as_xyz    
x,y,z                         

loop_                         
_atom_site_label              
_atom_site_type_symbol        
_atom_site_occupancy          
_atom_site_fract_x            
_atom_site_fract_y            
_atom_site_fract_z            
_atom_site_U_iso_or_equiv     
O1   O    1.0     -0.08911189         -0.35545641         0.0                 0.0     
O2   O    1.0     -0.58911189         -0.35545641         0.0                 0.0     
O3   O    1.0     -0.33911189         -0.04692641         0.05551082          0.0     
O4   O    1.0     -0.83911189         -0.04692641         0.05551082          0.0     
O5   O    1.0     -0.33911189         -0.66398641         0.05551082          0.0     
O6   O    1.0     -0.83911189         -0.66398641         0.05551082          0.0     
O7   O    1.0     -0.08911189         -0.35545641         0.11102164          0.0     
O8   O    1.0     -0.58911189         -0.35545641         0.11102164          0.0     
O9   O    1.0     -0.08911189         -0.85545641         0.14495957          0.0     
O10  O    1.0     -0.58911189         -0.85545641         0.14495957          0.0     
O11  O    1.0     -0.33911189         -0.16398641         0.20047039          0.0     
O12  O    1.0     -0.83911189         -0.16398641         0.20047039          0.0     
O13  O    1.0     -0.33911189         -0.54692641         0.20047039          0.0     
O14  O    1.0     -0.83911189         -0.54692641         0.20047039          0.0     
O15  O    1.0     -0.08911189         -0.85545641         0.25598121          0.0     
O16  O    1.0     -0.58911189         -0.85545641         0.25598121          0.0     
O17  O    1.0     -0.08914107         -0.35544033         0.2895571           0.0     
O18  O    1.0     -0.58914914         -0.35544977         0.28940824          0.0     
O19  O    1.0     -0.33924324         -0.04700939         0.34584685          0.0     
O20  O    1.0     -0.83905238         -0.0470123          0.3458444           0.0     
O21  O    1.0     -0.33922295         -0.66389068         0.34584208          0.0     
O22  O    1.0     -0.8390293          -0.66388559         0.34584122          0.0     
O23  O    1.0     -1.08914518         -0.35552503         0.39987845          0.0     
O24  O    1.0     -0.58913649         -0.35546593         0.40069986          0.0     
O25  O    1.0     -1.08913165         -0.85547264         0.43561479          0.0     
O26  O    1.0     -0.58910976         -0.85547277         0.43530549          0.0     
O27  O    1.0     -0.34583177         -0.16904184         0.4937851           0.0     
O28  O    1.0     -0.83234388         -0.16905921         0.49379172          0.0     
O29  O    1.0     -0.34583492         -0.54190762         0.49378787          0.0     
O30  O    1.0     -0.83233922         -0.54190205         0.49378581          0.0     
O31  O    1.0     -1.08915202         -0.85549846         0.54482243          0.0     
O32  O    1.0     -0.58914542         -0.85550592         0.5450952           0.0     
Ir33 Ir   1.0     -0.33911189         -0.35545641         0.05551082          0.0     
Ir34 Ir   1.0     -0.83911189         -0.35545641         0.05551082          0.0     
Ir35 Ir   1.0     -0.08911189         -0.85545641         0.05551082          0.0     
Ir36 Ir   1.0     -0.58911189         -0.85545641         0.05551082          0.0     
Ir37 Ir   1.0     -0.08911189         -0.35545641         0.20047039          0.0     
Ir38 Ir   1.0     -0.58911189         -0.35545641         0.20047039          0.0     
Ir39 Ir   1.0     -0.33911189         -0.85545641         0.20047039          0.0     
Ir40 Ir   1.0     -0.83911189         -0.85545641         0.20047039          0.0     
Ir41 Ir   1.0     -0.33905959         -0.35544183         0.34463023          0.0     
Ir42 Ir   1.0     -0.83921627         -0.35543909         0.34462932          0.0     
Ir43 Ir   1.0     -0.08912148         -0.85544505         0.34630257          0.0     
Ir44 Ir   1.0     -0.58912025         -0.8554455          0.34598796          0.0     
Ir45 Ir   1.0     -1.08906876         -0.35546589         0.48752375          0.0     
Ir46 Ir   1.0     -0.34006343         -0.85546879         0.4917555           0.0     
Ir47 Ir   1.0     -0.83818187         -0.85545419         0.49175337          0.0     
Ge48 Ge   1.0     -0.58906462         -0.35544208         0.48398741          0.0     
