data_OTiMn
_audit_creation_method        'pos2cif.py by jyxu'
_cell_length_a                5.75095815          
_cell_length_b                6.27405842          
_cell_length_c                21.85759397         
_cell_angle_alpha             90.0                
_cell_angle_beta              90.0                
_cell_angle_gamma             90.0                
_symmetry_space_group_H-M     'P1'                
_symmetry_Int_Tables_number   '1'                 
_symmetry_cell_setting        'triclinic'         
loop_                         
_symmetry_equiv_pos_as_xyz    
x,y,z                         

loop_                         
_atom_site_label              
_atom_site_type_symbol        
_atom_site_occupancy          
_atom_site_fract_x            
_atom_site_fract_y            
_atom_site_fract_z            
_atom_site_U_iso_or_equiv     
O1        O         1.0     0.0                 0.5                 0.0                 0.0     
O2        O         1.0     0.5                 0.5                 0.0                 0.0     
O3        O         1.0     0.25                0.19497             0.05596             0.0     
O4        O         1.0     0.75                0.19497             0.05596             0.0     
O5        O         1.0     0.25                0.80503             0.05596             0.0     
O6        O         1.0     0.75                0.80503             0.05596             0.0     
O7        O         1.0     0.0                 0.5                 0.11193             0.0     
O8        O         1.0     0.5                 0.5                 0.11193             0.0     
O9        O         1.0     0.0                 0.0                 0.14352             0.0     
O10       O         1.0     0.5                 0.0                 0.14352             0.0     
O11       O         1.0     0.75                0.30503             0.19949             0.0     
O12       O         1.0     0.25                0.30503             0.19949             0.0     
O13       O         1.0     0.25                0.69497             0.19949             0.0     
O14       O         1.0     0.75                0.69497             0.19949             0.0     
O15       O         1.0     0.0                 0.0                 0.25545             0.0     
O16       O         1.0     0.5                 0.0                 0.25545             0.0     
O17       O         1.0     -8.884e-05          0.50000002          0.28673443          0.0     
O18       O         1.0     0.49995459          0.50000001          0.28597186          0.0     
O19       O         1.0     0.24967249          0.1956913           0.34365746          0.0     
O20       O         1.0     0.75024086          0.19545244          0.34400893          0.0     
O21       O         1.0     0.2496725           0.8043087           0.34365749          0.0     
O22       O         1.0     0.75024087          0.80454755          0.34400897          0.0     
O23       O         1.0     -9.138e-05          0.49999999          0.39860122          0.0     
O24       O         1.0     0.50010336          0.50000001          0.39755752          0.0     
O25       O         1.0     0.00244168          -6e-08              0.43250955          0.0     
O26       O         1.0     0.49626317          6e-08               0.43223639          0.0     
O27       O         1.0     0.24824603          0.30564779          0.49631892          0.0     
O28       O         1.0     0.7532261           0.3055401           0.49735362          0.0     
O29       O         1.0     0.248246            0.69435227          0.49631887          0.0     
O30       O         1.0     0.75322619          0.69445992          0.49735366          0.0     
O31       O         1.0     0.00645604          2.1e-07             0.54277694          0.0     
O32       O         1.0     0.49401301          -2.1e-07            0.54204303          0.0     
Ti1       Ti        1.0     0.50089969          0.50000007          0.48115559          0.0     
Mn1       Mn        1.0     0.0                 0.0                 0.05596             0.0     
Mn2       Mn        1.0     0.5                 0.0                 0.05596             0.0     
Mn3       Mn        1.0     0.25                0.5                 0.05596             0.0     
Mn4       Mn        1.0     0.75                0.5                 0.05596             0.0     
Mn5       Mn        1.0     0.25                0.0                 0.19949             0.0     
Mn6       Mn        1.0     0.75                0.0                 0.19949             0.0     
Mn7       Mn        1.0     0.0                 0.5                 0.19949             0.0     
Mn8       Mn        1.0     0.5                 0.5                 0.19949             0.0     
Mn9       Mn        1.0     0.24724788          0.5                 0.34085172          0.0     
Mn10      Mn        1.0     0.75262253          0.5                 0.34096444          0.0     
Mn11      Mn        1.0     0.49973284          1e-08               0.34476767          0.0     
Mn12      Mn        1.0     0.00028892          0.0                 0.3449784           0.0     
Mn13      Mn        1.0     0.00189582          0.50000003          0.48639481          0.0     
Mn14      Mn        1.0     0.24599568          3e-08               0.49377736          0.0     
Mn15      Mn        1.0     0.74979387          1e-08               0.48967206          0.0     
