data_ORuGe
_audit_creation_method        'pos2cif.py'        
_cell_length_a                6.22358237          
_cell_length_b                6.35872035119657    
_cell_length_c                22.00806185720124   
_cell_angle_alpha             90.0                
_cell_angle_beta              90.0                
_cell_angle_gamma             90.0                
_symmetry_space_group_H-M     'P1'                
_symmetry_Int_Tables_number   '1'                 
_symmetry_cell_setting        'triclinic'         
loop_                         
_symmetry_equiv_pos_as_xyz    
x,y,z                         

loop_                         
_atom_site_label              
_atom_site_type_symbol        
_atom_site_occupancy          
_atom_site_fract_x            
_atom_site_fract_y            
_atom_site_fract_z            
_atom_site_U_iso_or_equiv     
O1   O    1.0     0.33911189          0.07924319          0.05611538          0.0     
O2   O    1.0     0.83911189          0.07924319          0.05611538          0.0     
O3   O    1.0     0.33911189          0.46768319          0.05611538          0.0     
O4   O    1.0     0.83911189          0.46768319          0.05611538          0.0     
O5   O    1.0     0.08911189          0.77346319          0.11223075          0.0     
O6   O    1.0     0.58911189          0.77346319          0.11223075          0.0     
O7   O    1.0     0.08911189          0.27346319          0.14446343          0.0     
O8   O    1.0     0.58911189          0.27346319          0.14446343          0.0     
O9   O    1.0     0.33911189          0.57924319          0.20057881          0.0     
O10  O    1.0     0.83911189          0.57924319          0.20057881          0.0     
O11  O    1.0     0.33911189          0.96768319          0.20057881          0.0     
O12  O    1.0     0.83911189          0.96768319          0.20057881          0.0     
O13  O    1.0     0.08911189          0.27346319          0.25669419          0.0     
O14  O    1.0     0.58911189          0.27346319          0.25669419          0.0     
O15  O    1.0     0.08908553          0.77340984          0.28814091          0.0     
O16  O    1.0     0.58908805          0.77342751          0.28807691          0.0     
O17  O    1.0     0.33961447          0.07906611          0.34529933          0.0     
O18  O    1.0     0.83852414          0.07906034          0.34530458          0.0     
O19  O    1.0     0.33966331          0.46768011          0.34530807          0.0     
O20  O    1.0     0.83851321          0.46767489          0.34531619          0.0     
O21  O    1.0     0.08905945          0.77345351          0.39922485          0.0     
O22  O    1.0     0.58906402          0.77356203          0.40030185          0.0     
O23  O    1.0     0.08904175          0.27347442          0.43494247          0.0     
O24  O    1.0     0.5890358           0.27346468          0.43473311          0.0     
O25  O    1.0     0.34192461          0.58577059          0.49399917          0.0     
O26  O    1.0     0.83606933          0.58579467          0.4940015           0.0     
O27  O    1.0     0.34191313          0.96143958          0.49400937          0.0     
O28  O    1.0     0.836083            0.96147219          0.49400244          0.0     
O29  O    1.0     0.08903555          0.27374932          0.5437675           0.0     
O30  O    1.0     0.58905684          0.27368294          0.54488555          0.0     
O31  O    1.0     0.08911189          0.77346319          0.0                 0.0     
O32  O    1.0     0.58911189          0.77346319          0.0                 0.0     
Ru33 Ru   1.0     0.08911189          0.27346319          0.05611538          0.0     
Ru34 Ru   1.0     0.58911189          0.27346319          0.05611538          0.0     
Ru35 Ru   1.0     0.33911189          0.77346319          0.05611538          0.0     
Ru36 Ru   1.0     0.83911189          0.77346319          0.05611538          0.0     
Ru37 Ru   1.0     0.33911189          0.27346319          0.20057881          0.0     
Ru38 Ru   1.0     0.83911189          0.27346319          0.20057881          0.0     
Ru39 Ru   1.0     0.08911189          0.77346319          0.20057881          0.0     
Ru40 Ru   1.0     0.58911189          0.77346319          0.20057881          0.0     
Ru41 Ru   1.0     0.08908212          0.27337355          0.34652038          0.0     
Ru42 Ru   1.0     0.58907414          0.27337363          0.34600477          0.0     
Ru43 Ru   1.0     0.33840572          0.77340263          0.34334519          0.0     
Ru44 Ru   1.0     0.83975537          0.77339442          0.34334493          0.0     
Ru45 Ru   1.0     0.33995793          0.27360099          0.49405839          0.0     
Ru46 Ru   1.0     0.83810861          0.27361045          0.49406748          0.0     
Ru47 Ru   1.0     0.08900803          0.773613            0.4846767           0.0     
Ge48 Ge   1.0     0.58898891          0.77358711          0.48299673          0.0     
