data_OTiOs
_audit_creation_method        'pos2cif.py'        
_cell_length_a                5.92135997          
_cell_length_b                6.547742919719694   
_cell_length_c                22.386103373860767  
_cell_angle_alpha             90.0                
_cell_angle_beta              90.0                
_cell_angle_gamma             90.0                
_symmetry_space_group_H-M     'P1'                
_symmetry_Int_Tables_number   '1'                 
_symmetry_cell_setting        'triclinic'         
loop_                         
_symmetry_equiv_pos_as_xyz    
x,y,z                         

loop_                         
_atom_site_label              
_atom_site_type_symbol        
_atom_site_occupancy          
_atom_site_fract_x            
_atom_site_fract_y            
_atom_site_fract_z            
_atom_site_U_iso_or_equiv     
O1   O    1.0     0.08911189          0.7734632           0.0                 0.0     
O2   O    1.0     0.58911189          0.7734632           0.0                 0.0     
O3   O    1.0     0.33911189          0.0776332           0.05727859          0.0     
O4   O    1.0     0.83911189          0.0776332           0.05727859          0.0     
O5   O    1.0     0.33911189          0.4692932           0.05727859          0.0     
O6   O    1.0     0.83911189          0.4692932           0.05727859          0.0     
O7   O    1.0     0.08911189          0.7734632           0.11455719          0.0     
O8   O    1.0     0.58911189          0.7734632           0.11455719          0.0     
O9   O    1.0     0.08911189          0.2734632           0.1462457           0.0     
O10  O    1.0     0.58911189          0.2734632           0.1462457           0.0     
O11  O    1.0     0.33911189          0.5776332           0.2035243           0.0     
O12  O    1.0     0.83911189          0.5776332           0.2035243           0.0     
O13  O    1.0     0.33911189          0.9692932           0.2035243           0.0     
O14  O    1.0     0.83911189          0.9692932           0.2035243           0.0     
O15  O    1.0     0.08911189          0.2734632           0.26080289          0.0     
O16  O    1.0     0.58911189          0.2734632           0.26080289          0.0     
O17  O    1.0     0.08916772          0.7735011           0.2936673           0.0     
O18  O    1.0     0.58904907          0.7734687           0.29452998          0.0     
O19  O    1.0     0.33970537          0.07445143          0.35151808          0.0     
O20  O    1.0     0.8384697           0.07444228          0.35151548          0.0     
O21  O    1.0     0.33969736          0.47248599          0.35150073          0.0     
O22  O    1.0     0.83849119          0.47246943          0.35149659          0.0     
O23  O    1.0     0.08897037          0.77348779          0.40746019          0.0     
O24  O    1.0     0.58915541          0.77344007          0.41087154          0.0     
O25  O    1.0     0.0890339           0.27344525          0.44059228          0.0     
O26  O    1.0     0.58912285          0.27349679          0.44109513          0.0     
O27  O    1.0     0.33347052          0.58312638          0.50740281          0.0     
O28  O    1.0     0.84514544          0.58299613          0.50751106          0.0     
O29  O    1.0     0.33353453          0.96378774          0.50743001          0.0     
O30  O    1.0     0.8450812           0.96394212          0.50752064          0.0     
O31  O    1.0     0.08917487          0.27344171          0.55628633          0.0     
O32  O    1.0     0.58906378          0.27345712          0.55659648          0.0     
Ti33 Ti   1.0     0.08911189          0.2734632           0.05727859          0.0     
Ti34 Ti   1.0     0.58911189          0.2734632           0.05727859          0.0     
Ti35 Ti   1.0     0.33911189          0.7734632           0.05727859          0.0     
Ti36 Ti   1.0     0.83911189          0.7734632           0.05727859          0.0     
Ti37 Ti   1.0     0.33911189          0.2734632           0.2035243           0.0     
Ti38 Ti   1.0     0.83911189          0.2734632           0.2035243           0.0     
Ti39 Ti   1.0     0.08911189          0.7734632           0.2035243           0.0     
Ti40 Ti   1.0     0.58911189          0.7734632           0.2035243           0.0     
Ti41 Ti   1.0     0.08916243          0.27341103          0.35701256          0.0     
Ti42 Ti   1.0     0.58917445          0.27343461          0.35682612          0.0     
Ti43 Ti   1.0     0.33770804          0.7733909           0.34693111          0.0     
Ti44 Ti   1.0     0.84069187          0.77342468          0.34687835          0.0     
Ti45 Ti   1.0     0.33966339          0.27349604          0.507136            0.0     
Ti46 Ti   1.0     0.83870126          0.27345751          0.50716247          0.0     
Ti47 Ti   1.0     0.08910818          0.77351118          0.48905219          0.0     
Os48 Os   1.0     0.58941752          0.77345244          0.49393431          0.0     
