data_OVOs
_audit_creation_method        'pos2cif.py by jyxu'
_cell_length_a                5.64711014          
_cell_length_b                6.450147843790429   
_cell_length_c                22.267278180501698  
_cell_angle_alpha             90.0                
_cell_angle_beta              90.0                
_cell_angle_gamma             90.0                
_symmetry_space_group_H-M     'P1'                
_symmetry_Int_Tables_number   '1'                 
_symmetry_cell_setting        'triclinic'         
loop_                         
_symmetry_equiv_pos_as_xyz    
x,y,z                         

loop_                         
_atom_site_label              
_atom_site_type_symbol        
_atom_site_occupancy          
_atom_site_fract_x            
_atom_site_fract_y            
_atom_site_fract_z            
_atom_site_U_iso_or_equiv     
O1        O         1.0     0.41591489          0.55480134          0.0                 0.0     
O2        O         1.0     -0.08408511         0.55480134          0.0                 0.0     
O3        O         1.0     0.16591489          0.25573134          0.05820326          0.0     
O4        O         1.0     0.66591489          0.25573134          0.05820326          0.0     
O5        O         1.0     0.16591489          0.85387134          0.05820326          0.0     
O6        O         1.0     0.66591489          0.85387134          0.05820326          0.0     
O7        O         1.0     0.41591489          0.55480134          0.11640652          0.0     
O8        O         1.0     -0.08408511         0.55480134          0.11640652          0.0     
O9        O         1.0     0.41591489          0.05480134          0.14483467          0.0     
O10       O         1.0     -0.08408511         0.05480134          0.14483467          0.0     
O11       O         1.0     0.16591489          0.35387134          0.20303793          0.0     
O12       O         1.0     0.66591489          0.35387134          0.20303793          0.0     
O13       O         1.0     0.16591489          0.75573134          0.20303793          0.0     
O14       O         1.0     0.66591489          0.75573134          0.20303793          0.0     
O15       O         1.0     0.41591489          0.05480134          0.26124119          0.0     
O16       O         1.0     -0.08408511         0.05480134          0.26124119          0.0     
O17       O         1.0     0.41597987          0.55483549          0.28797014          0.0     
O18       O         1.0     -0.0839996          0.55469974          0.28995109          0.0     
O19       O         1.0     0.1665086           0.25611557          0.34902055          0.0     
O20       O         1.0     0.66521926          0.25614061          0.34901699          0.0     
O21       O         1.0     0.16651561          0.85343074          0.34900554          0.0     
O22       O         1.0     0.6651813           0.85347797          0.34900448          0.0     
O23       O         1.0     0.41594934          0.55478734          0.40681132          0.0     
O24       O         1.0     -0.08398833         0.55491868          0.40533486          0.0     
O25       O         1.0     0.41595691          0.0547453           0.43968844          0.0     
O26       O         1.0     -0.0840527          0.05467138          0.43848174          0.0     
O27       O         1.0     0.15153278          0.35807545          0.50347674          0.0     
O28       O         1.0     0.68064825          0.35801194          0.50350795          0.0     
O29       O         1.0     0.15157708          0.75147374          0.50352577          0.0     
O30       O         1.0     0.68057897          0.75149201          0.50358627          0.0     
O31       O         1.0     0.41605004          0.05492704          0.5523622           0.0     
O32       O         1.0     -0.08386243         0.0548039           0.55287805          0.0     
V1        V         1.0     0.41591489          0.05480134          0.05820326          0.0     
V2        V         1.0     -0.08408511         0.05480134          0.05820326          0.0     
V3        V         1.0     0.16591489          0.55480134          0.05820326          0.0     
V4        V         1.0     0.66591489          0.55480134          0.05820326          0.0     
V5        V         1.0     0.16591489          0.05480134          0.20303793          0.0     
V6        V         1.0     0.66591489          0.05480134          0.20303793          0.0     
V7        V         1.0     0.41591489          0.55480134          0.20303793          0.0     
V8        V         1.0     -0.08408511         0.55480134          0.20303793          0.0     
V9        V         1.0     0.41608186          0.05477649          0.35351691          0.0     
V10       V         1.0     -0.08388738         0.05479627          0.35441063          0.0     
V11       V         1.0     0.17270438          0.55480195          0.34442547          0.0     
V12       V         1.0     0.65948691          0.55479519          0.34441072          0.0     
V13       V         1.0     0.16497128          0.05481637          0.50324098          0.0     
V14       V         1.0     0.66745852          0.05481488          0.50328144          0.0     
V15       V         1.0     -0.08400488         0.55483607          0.48311352          0.0     
Os1       Os        1.0     0.41614399          0.55477103          0.49071817          0.0     
