data_OVCr
_audit_creation_method        'pos2cif.py by jyxu'
_cell_length_a                5.64711014          
_cell_length_b                6.45014784          
_cell_length_c                22.26727818         
_cell_angle_alpha             90.0                
_cell_angle_beta              90.0                
_cell_angle_gamma             90.0                
_symmetry_space_group_H-M     'P1'                
_symmetry_Int_Tables_number   '1'                 
_symmetry_cell_setting        'triclinic'         
loop_                         
_symmetry_equiv_pos_as_xyz    
x,y,z                         

loop_                         
_atom_site_label              
_atom_site_type_symbol        
_atom_site_occupancy          
_atom_site_fract_x            
_atom_site_fract_y            
_atom_site_fract_z            
_atom_site_U_iso_or_equiv     
O1        O         1.0     0.41591489          0.55480134          0.0                 0.0     
O2        O         1.0     -0.08408511         0.55480134          0.0                 0.0     
O3        O         1.0     0.16591489          0.25573134          0.05820326          0.0     
O4        O         1.0     0.66591489          0.25573134          0.05820326          0.0     
O5        O         1.0     0.16591489          0.85387134          0.05820326          0.0     
O6        O         1.0     0.66591489          0.85387134          0.05820326          0.0     
O7        O         1.0     0.41591489          0.55480134          0.11640652          0.0     
O8        O         1.0     -0.08408511         0.55480134          0.11640652          0.0     
O9        O         1.0     -0.08408511         0.05480134          0.14483467          0.0     
O10       O         1.0     0.41591489          0.05480134          0.14483467          0.0     
O11       O         1.0     0.16591489          0.35387134          0.20303793          0.0     
O12       O         1.0     0.66591489          0.35387134          0.20303793          0.0     
O13       O         1.0     0.16591489          0.75573134          0.20303793          0.0     
O14       O         1.0     0.66591489          0.75573134          0.20303793          0.0     
O15       O         1.0     0.41591489          0.05480134          0.26124119          0.0     
O16       O         1.0     -0.08408511         0.05480134          0.26124119          0.0     
O17       O         1.0     0.41598369          0.55479557          0.28845164          0.0     
O18       O         1.0     -0.08403461         0.55476994          0.29098864          0.0     
O19       O         1.0     0.16620516          0.25589566          0.34873247          0.0     
O20       O         1.0     0.66565121          0.25588756          0.34873393          0.0     
O21       O         1.0     0.16613944          0.85368874          0.34871561          0.0     
O22       O         1.0     0.66561139          0.85370665          0.34871231          0.0     
O23       O         1.0     0.41600423          0.55479894          0.40659872          0.0     
O24       O         1.0     -0.08402526         0.55476631          0.40615695          0.0     
O25       O         1.0     0.41595718          0.05464086          0.43830624          0.0     
O26       O         1.0     -0.08408775         0.05465724          0.43768791          0.0     
O27       O         1.0     0.15874787          0.36334592          0.50101705          0.0     
O28       O         1.0     0.6732609           0.3633645           0.50102787          0.0     
O29       O         1.0     0.15874896          0.74597302          0.50106068          0.0     
O30       O         1.0     0.67325543          0.74594864          0.50106954          0.0     
O31       O         1.0     0.41602626          0.05471526          0.55130293          0.0     
O32       O         1.0     -0.08396705         0.05470658          0.55139667          0.0     
V1        V         1.0     0.41591489          0.05480134          0.05820326          0.0     
V2        V         1.0     -0.08408511         0.05480134          0.05820326          0.0     
V3        V         1.0     0.16591489          0.55480134          0.05820326          0.0     
V4        V         1.0     0.66591489          0.55480134          0.05820326          0.0     
V5        V         1.0     0.16591489          0.05480134          0.20303793          0.0     
V6        V         1.0     0.66591489          0.05480134          0.20303793          0.0     
V7        V         1.0     0.41591489          0.55480134          0.20303793          0.0     
V8        V         1.0     -0.08408511         0.55480134          0.20303793          0.0     
V9        V         1.0     0.17414484          0.55483799          0.34575838          0.0     
V10       V         1.0     0.65788943          0.55483546          0.34574813          0.0     
V11       V         1.0     0.41602429          0.05480832          0.35344172          0.0     
V12       V         1.0     -0.0839722          0.05480977          0.35348261          0.0     
V13       V         1.0     -0.08400941         0.55471819          0.48452904          0.0     
V14       V         1.0     0.16611111          0.05469013          0.5020781           0.0     
V15       V         1.0     0.66607841          0.05468781          0.50206826          0.0     
Cr1       Cr        1.0     0.41599             0.55465375          0.48823922          0.0     
