data_OVIr
_audit_creation_method        'pos2cif.py'        
_cell_length_a                5.64711014          
_cell_length_b                6.450147843790429   
_cell_length_c                22.267278180501698  
_cell_angle_alpha             90.0                
_cell_angle_beta              90.0                
_cell_angle_gamma             90.0                
_symmetry_space_group_H-M     'P1'                
_symmetry_Int_Tables_number   '1'                 
_symmetry_cell_setting        'triclinic'         
loop_                         
_symmetry_equiv_pos_as_xyz    
x,y,z                         

loop_                         
_atom_site_label              
_atom_site_type_symbol        
_atom_site_occupancy          
_atom_site_fract_x            
_atom_site_fract_y            
_atom_site_fract_z            
_atom_site_U_iso_or_equiv     
O1   O    1.0     0.41591489          0.55480134          0.0                 0.0     
O2   O    1.0     0.91591489          0.55480134          0.0                 0.0     
O3   O    1.0     0.16591489          0.25573134          0.05820326          0.0     
O4   O    1.0     0.66591489          0.25573134          0.05820326          0.0     
O5   O    1.0     0.16591489          0.85387134          0.05820326          0.0     
O6   O    1.0     0.66591489          0.85387134          0.05820326          0.0     
O7   O    1.0     0.41591489          0.55480134          0.11640652          0.0     
O8   O    1.0     0.91591489          0.55480134          0.11640652          0.0     
O9   O    1.0     0.41591489          0.05480134          0.14483467          0.0     
O10  O    1.0     0.91591489          0.05480134          0.14483467          0.0     
O11  O    1.0     0.16591489          0.35387134          0.20303793          0.0     
O12  O    1.0     0.66591489          0.35387134          0.20303793          0.0     
O13  O    1.0     0.16591489          0.75573134          0.20303793          0.0     
O14  O    1.0     0.66591489          0.75573134          0.20303793          0.0     
O15  O    1.0     0.41591489          0.05480134          0.26124119          0.0     
O16  O    1.0     0.91591489          0.05480134          0.26124119          0.0     
O17  O    1.0     0.41855264          0.55485097          0.28747562          0.0     
O18  O    1.0     0.91589053          0.55469993          0.29014596          0.0     
O19  O    1.0     0.16226751          0.25814375          0.34861336          0.0     
O20  O    1.0     0.66032156          0.25533437          0.34853542          0.0     
O21  O    1.0     0.16209618          0.85142382          0.34863675          0.0     
O22  O    1.0     0.66028965          0.85427038          0.34854651          0.0     
O23  O    1.0     0.41875905          0.55480652          0.40456008          0.0     
O24  O    1.0     -0.07888448         0.55486465          0.40613057          0.0     
O25  O    1.0     0.40510663          0.05481798          0.44082266          0.0     
O26  O    1.0     -0.10393979         0.05499394          0.43487623          0.0     
O27  O    1.0     0.14343556          0.34618371          0.50270342          0.0     
O28  O    1.0     0.67978319          0.36317229          0.49960789          0.0     
O29  O    1.0     0.1434314           0.76365063          0.50269145          0.0     
O30  O    1.0     0.67981584          0.74668556          0.49957543          0.0     
O31  O    1.0     0.426805            0.05490672          0.55506603          0.0     
O32  O    1.0     -0.08252123         0.0548866           0.55073573          0.0     
V33  V    1.0     0.41591489          0.05480134          0.05820326          0.0     
V34  V    1.0     0.91591489          0.05480134          0.05820326          0.0     
V35  V    1.0     0.16591489          0.55480134          0.05820326          0.0     
V36  V    1.0     0.66591489          0.55480134          0.05820326          0.0     
V37  V    1.0     0.16591489          0.05480134          0.20303793          0.0     
V38  V    1.0     0.66591489          0.05480134          0.20303793          0.0     
V39  V    1.0     0.41591489          0.55480134          0.20303793          0.0     
V40  V    1.0     0.91591489          0.55480134          0.20303793          0.0     
V41  V    1.0     0.41698193          0.05478253          0.35111172          0.0     
V42  V    1.0     0.92158572          0.05484829          0.34735324          0.0     
V43  V    1.0     0.18688555          0.55482165          0.34679491          0.0     
V44  V    1.0     0.66134165          0.55481863          0.34575788          0.0     
V45  V    1.0     0.19191751          0.05492312          0.50844756          0.0     
V46  V    1.0     0.69140237          0.05493475          0.49409026          0.0     
V47  V    1.0     -0.06986539         0.55491078          0.48429201          0.0     
Ir48 Ir   1.0     0.40268573          0.55492119          0.49616191          0.0     
