data_OVRh
_audit_creation_method        'pos2cif.py by jyxu'
_cell_length_a                5.64711014          
_cell_length_b                6.450147843790429   
_cell_length_c                22.267278180501698  
_cell_angle_alpha             90.0                
_cell_angle_beta              90.0                
_cell_angle_gamma             90.0                
_symmetry_space_group_H-M     'P1'                
_symmetry_Int_Tables_number   '1'                 
_symmetry_cell_setting        'triclinic'         
loop_                         
_symmetry_equiv_pos_as_xyz    
x,y,z                         

loop_                         
_atom_site_label              
_atom_site_type_symbol        
_atom_site_occupancy          
_atom_site_fract_x            
_atom_site_fract_y            
_atom_site_fract_z            
_atom_site_U_iso_or_equiv     
O1        O         1.0     0.41591489          0.55480134          0.0                 0.0     
O2        O         1.0     -0.08408511         0.55480134          0.0                 0.0     
O3        O         1.0     0.16591489          0.25573134          0.05820326          0.0     
O4        O         1.0     0.66591489          0.25573134          0.05820326          0.0     
O5        O         1.0     0.16591489          0.85387134          0.05820326          0.0     
O6        O         1.0     0.66591489          0.85387134          0.05820326          0.0     
O7        O         1.0     0.41591489          0.55480134          0.11640652          0.0     
O8        O         1.0     -0.08408511         0.55480134          0.11640652          0.0     
O9        O         1.0     0.41591489          0.05480134          0.14483467          0.0     
O10       O         1.0     -0.08408511         0.05480134          0.14483467          0.0     
O11       O         1.0     0.16591489          0.35387134          0.20303793          0.0     
O12       O         1.0     0.66591489          0.35387134          0.20303793          0.0     
O13       O         1.0     0.16591489          0.75573134          0.20303793          0.0     
O14       O         1.0     0.66591489          0.75573134          0.20303793          0.0     
O15       O         1.0     0.41591489          0.05480134          0.26124119          0.0     
O16       O         1.0     -0.08408511         0.05480134          0.26124119          0.0     
O17       O         1.0     0.41599079          0.55471573          0.28712706          0.0     
O18       O         1.0     -0.08418158         0.55472652          0.2897697           0.0     
O19       O         1.0     0.16577016          0.25656585          0.34808733          0.0     
O20       O         1.0     0.66548213          0.25643968          0.34809466          0.0     
O21       O         1.0     0.16575508          0.85297758          0.3481089           0.0     
O22       O         1.0     0.66547197          0.85310136          0.34811765          0.0     
O23       O         1.0     0.41600769          0.55482075          0.40341491          0.0     
O24       O         1.0     -0.08397057         0.55472841          0.40478599          0.0     
O25       O         1.0     0.41561912          0.05492047          0.43744169          0.0     
O26       O         1.0     -0.08442394         0.05501292          0.4363544           0.0     
O27       O         1.0     0.14549717          0.35642491          0.50040436          0.0     
O28       O         1.0     0.68606519          0.356956            0.50035519          0.0     
O29       O         1.0     0.14538662          0.75380142          0.50037916          0.0     
O30       O         1.0     0.68611289          0.75330048          0.50033538          0.0     
O31       O         1.0     0.41603412          0.05496432          0.5497784           0.0     
O32       O         1.0     -0.08410693         0.05510185          0.55054434          0.0     
V1        V         1.0     0.41591489          0.05480134          0.05820326          0.0     
V2        V         1.0     -0.08408511         0.05480134          0.05820326          0.0     
V3        V         1.0     0.16591489          0.55480134          0.05820326          0.0     
V4        V         1.0     0.66591489          0.55480134          0.05820326          0.0     
V5        V         1.0     0.16591489          0.05480134          0.20303793          0.0     
V6        V         1.0     0.66591489          0.05480134          0.20303793          0.0     
V7        V         1.0     0.41591489          0.55480134          0.20303793          0.0     
V8        V         1.0     -0.08408511         0.55480134          0.20303793          0.0     
V9        V         1.0     0.41628081          0.05474866          0.35194559          0.0     
V10       V         1.0     -0.0835593          0.05474228          0.35183589          0.0     
V11       V         1.0     0.17944008          0.55470211          0.34576068          0.0     
V12       V         1.0     0.65340491          0.55469157          0.34564303          0.0     
V13       V         1.0     0.16495066          0.05496565          0.5009076           0.0     
V14       V         1.0     0.66780084          0.05494671          0.50079279          0.0     
V15       V         1.0     -0.08365721         0.55487834          0.48314696          0.0     
Rh1       Rh        1.0     0.41550703          0.55525254          0.4948303           0.0     
