data_OVGe
_audit_creation_method        'pos2cif.py by jyxu'
_cell_length_a                5.64711014          
_cell_length_b                6.450147843790429   
_cell_length_c                22.267278180501698  
_cell_angle_alpha             90.0                
_cell_angle_beta              90.0                
_cell_angle_gamma             90.0                
_symmetry_space_group_H-M     'P1'                
_symmetry_Int_Tables_number   '1'                 
_symmetry_cell_setting        'triclinic'         
loop_                         
_symmetry_equiv_pos_as_xyz    
x,y,z                         

loop_                         
_atom_site_label              
_atom_site_type_symbol        
_atom_site_occupancy          
_atom_site_fract_x            
_atom_site_fract_y            
_atom_site_fract_z            
_atom_site_U_iso_or_equiv     
O1        O         1.0     0.41591489          0.55480134          0.0                 0.0     
O2        O         1.0     -0.08408511         0.55480134          0.0                 0.0     
O3        O         1.0     0.16591489          0.25573134          0.05820326          0.0     
O4        O         1.0     0.66591489          0.25573134          0.05820326          0.0     
O5        O         1.0     0.16591489          0.85387134          0.05820326          0.0     
O6        O         1.0     0.66591489          0.85387134          0.05820326          0.0     
O7        O         1.0     0.41591489          0.55480134          0.11640652          0.0     
O8        O         1.0     -0.08408511         0.55480134          0.11640652          0.0     
O9        O         1.0     0.41591489          0.05480134          0.14483467          0.0     
O10       O         1.0     -0.08408511         0.05480134          0.14483467          0.0     
O11       O         1.0     0.16591489          0.35387134          0.20303793          0.0     
O12       O         1.0     0.66591489          0.35387134          0.20303793          0.0     
O13       O         1.0     0.16591489          0.75573134          0.20303793          0.0     
O14       O         1.0     0.66591489          0.75573134          0.20303793          0.0     
O15       O         1.0     0.41591489          0.05480134          0.26124119          0.0     
O16       O         1.0     -0.08408511         0.05480134          0.26124119          0.0     
O17       O         1.0     0.41596439          0.55474834          0.29011107          0.0     
O18       O         1.0     -0.08403087         0.55483317          0.28817645          0.0     
O19       O         1.0     0.16401881          0.25624405          0.34844299          0.0     
O20       O         1.0     0.66783294          0.256248            0.34844131          0.0     
O21       O         1.0     0.16400853          0.85333269          0.34844671          0.0     
O22       O         1.0     0.66783425          0.85332686          0.34843731          0.0     
O23       O         1.0     0.41593773          0.55474389          0.40467835          0.0     
O24       O         1.0     -0.08404164         0.55474477          0.40737675          0.0     
O25       O         1.0     0.41598895          0.05474978          0.43720552          0.0     
O26       O         1.0     -0.08404877         0.05474172          0.43734554          0.0     
O27       O         1.0     0.16725751          0.36630312          0.50188536          0.0     
O28       O         1.0     0.66457661          0.36631135          0.50187624          0.0     
O29       O         1.0     0.16726105          0.74311374          0.50190249          0.0     
O30       O         1.0     0.66459152          0.7431386           0.50188211          0.0     
O31       O         1.0     0.41600112          0.05465967          0.55003925          0.0     
O32       O         1.0     -0.08405028         0.05466437          0.54946056          0.0     
V1        V         1.0     0.41591489          0.05480134          0.05820326          0.0     
V2        V         1.0     -0.08408511         0.05480134          0.05820326          0.0     
V3        V         1.0     0.16591489          0.55480134          0.05820326          0.0     
V4        V         1.0     0.66591489          0.55480134          0.05820326          0.0     
V5        V         1.0     0.16591489          0.05480134          0.20303793          0.0     
V6        V         1.0     0.66591489          0.05480134          0.20303793          0.0     
V7        V         1.0     0.41591489          0.55480134          0.20303793          0.0     
V8        V         1.0     -0.08408511         0.55480134          0.20303793          0.0     
V9        V         1.0     0.41602529          0.05480658          0.35148457          0.0     
V10       V         1.0     -0.08397783         0.05481124          0.35190142          0.0     
V11       V         1.0     0.16294703          0.55482137          0.34515712          0.0     
V12       V         1.0     0.6690308           0.55481995          0.34515599          0.0     
V13       V         1.0     0.16705791          0.05473131          0.50059439          0.0     
V14       V         1.0     0.66493616          0.05473151          0.50058556          0.0     
V15       V         1.0     -0.08406757         0.55472561          0.48556909          0.0     
Ge1       Ge        1.0     0.41592867          0.5547462           0.48659578          0.0     
