data_OVMn
_audit_creation_method        'pos2cif.py by jyxu'
_cell_length_a                5.64711014          
_cell_length_b                6.45014784          
_cell_length_c                22.26727818         
_cell_angle_alpha             90.0                
_cell_angle_beta              90.0                
_cell_angle_gamma             90.0                
_symmetry_space_group_H-M     'P1'                
_symmetry_Int_Tables_number   '1'                 
_symmetry_cell_setting        'triclinic'         
loop_                         
_symmetry_equiv_pos_as_xyz    
x,y,z                         

loop_                         
_atom_site_label              
_atom_site_type_symbol        
_atom_site_occupancy          
_atom_site_fract_x            
_atom_site_fract_y            
_atom_site_fract_z            
_atom_site_U_iso_or_equiv     
O1        O         1.0     0.41591489          0.55480134          0.0                 0.0     
O2        O         1.0     -0.08408511         0.55480134          0.0                 0.0     
O3        O         1.0     0.16591489          0.25573134          0.05820326          0.0     
O4        O         1.0     0.66591489          0.25573134          0.05820326          0.0     
O5        O         1.0     0.16591489          0.85387134          0.05820326          0.0     
O6        O         1.0     0.66591489          0.85387134          0.05820326          0.0     
O7        O         1.0     0.41591489          0.55480134          0.11640652          0.0     
O8        O         1.0     -0.08408511         0.55480134          0.11640652          0.0     
O9        O         1.0     -0.08408511         0.05480134          0.14483467          0.0     
O10       O         1.0     0.41591489          0.05480134          0.14483467          0.0     
O11       O         1.0     0.16591489          0.35387134          0.20303793          0.0     
O12       O         1.0     0.66591489          0.35387134          0.20303793          0.0     
O13       O         1.0     0.16591489          0.75573134          0.20303793          0.0     
O14       O         1.0     0.66591489          0.75573134          0.20303793          0.0     
O15       O         1.0     0.41591489          0.05480134          0.26124119          0.0     
O16       O         1.0     -0.08408511         0.05480134          0.26124119          0.0     
O17       O         1.0     0.41600168          0.55479756          0.28875539          0.0     
O18       O         1.0     -0.08400096         0.55473086          0.28989901          0.0     
O19       O         1.0     0.16511315          0.25548234          0.34836183          0.0     
O20       O         1.0     0.66679661          0.25548474          0.34836146          0.0     
O21       O         1.0     0.16505444          0.85412446          0.34834748          0.0     
O22       O         1.0     0.6669098           0.85412497          0.34834319          0.0     
O23       O         1.0     0.4160073           0.55480164          0.40383519          0.0     
O24       O         1.0     -0.08399657         0.55479796          0.40650881          0.0     
O25       O         1.0     0.41594742          0.05459336          0.43759746          0.0     
O26       O         1.0     -0.0840788          0.0546215           0.43738093          0.0     
O27       O         1.0     0.15837652          0.36368364          0.5011235           0.0     
O28       O         1.0     0.67373557          0.36367667          0.5011174           0.0     
O29       O         1.0     0.158391            0.74554009          0.50118029          0.0     
O30       O         1.0     0.67375197          0.74550525          0.50120266          0.0     
O31       O         1.0     0.41606593          0.05467874          0.55044511          0.0     
O32       O         1.0     -0.08391646         0.05466118          0.5506218           0.0     
V1        V         1.0     0.41591489          0.05480134          0.05820326          0.0     
V2        V         1.0     -0.08408511         0.05480134          0.05820326          0.0     
V3        V         1.0     0.16591489          0.55480134          0.05820326          0.0     
V4        V         1.0     0.66591489          0.55480134          0.05820326          0.0     
V5        V         1.0     0.16591489          0.05480134          0.20303793          0.0     
V6        V         1.0     0.66591489          0.05480134          0.20303793          0.0     
V7        V         1.0     0.41591489          0.55480134          0.20303793          0.0     
V8        V         1.0     -0.08408511         0.55480134          0.20303793          0.0     
V9        V         1.0     0.17169901          0.55485556          0.34596668          0.0     
V10       V         1.0     0.66033088          0.55485749          0.34595664          0.0     
V11       V         1.0     0.41601693          0.05481105          0.35255156          0.0     
V12       V         1.0     -0.08398835         0.05482752          0.35220457          0.0     
V13       V         1.0     -0.08393295         0.55467769          0.48494592          0.0     
V14       V         1.0     0.16614186          0.05466557          0.50116048          0.0     
V15       V         1.0     0.66619298          0.05467217          0.5011417           0.0     
Mn1       Mn        1.0     0.4160688           0.55462451          0.49294994          0.0     
