data_OVTi
_audit_creation_method        'pos2cif.py by jyxu'
_cell_length_a                5.64711014          
_cell_length_b                6.450147843790429   
_cell_length_c                22.267278180501698  
_cell_angle_alpha             90.0                
_cell_angle_beta              90.0                
_cell_angle_gamma             90.0                
_symmetry_space_group_H-M     'P1'                
_symmetry_Int_Tables_number   '1'                 
_symmetry_cell_setting        'triclinic'         
loop_                         
_symmetry_equiv_pos_as_xyz    
x,y,z                         

loop_                         
_atom_site_label              
_atom_site_type_symbol        
_atom_site_occupancy          
_atom_site_fract_x            
_atom_site_fract_y            
_atom_site_fract_z            
_atom_site_U_iso_or_equiv     
O1        O         1.0     0.41591489          0.55480134          0.0                 0.0     
O2        O         1.0     -0.08408511         0.55480134          0.0                 0.0     
O3        O         1.0     0.16591489          0.25573134          0.05820326          0.0     
O4        O         1.0     0.66591489          0.25573134          0.05820326          0.0     
O5        O         1.0     0.16591489          0.85387134          0.05820326          0.0     
O6        O         1.0     0.66591489          0.85387134          0.05820326          0.0     
O7        O         1.0     0.41591489          0.55480134          0.11640652          0.0     
O8        O         1.0     -0.08408511         0.55480134          0.11640652          0.0     
O9        O         1.0     0.41591489          0.05480134          0.14483467          0.0     
O10       O         1.0     -0.08408511         0.05480134          0.14483467          0.0     
O11       O         1.0     0.16591489          0.35387134          0.20303793          0.0     
O12       O         1.0     0.66591489          0.35387134          0.20303793          0.0     
O13       O         1.0     0.16591489          0.75573134          0.20303793          0.0     
O14       O         1.0     0.66591489          0.75573134          0.20303793          0.0     
O15       O         1.0     0.41591489          0.05480134          0.26124119          0.0     
O16       O         1.0     -0.08408511         0.05480134          0.26124119          0.0     
O17       O         1.0     0.41598871          0.55480097          0.28909114          0.0     
O18       O         1.0     -0.08401046         0.55482547          0.2888446           0.0     
O19       O         1.0     0.16531447          0.25644167          0.34906801          0.0     
O20       O         1.0     0.6664103           0.25645232          0.34907387          0.0     
O21       O         1.0     0.16525408          0.85315194          0.34906491          0.0     
O22       O         1.0     0.66637772          0.85313991          0.34907213          0.0     
O23       O         1.0     0.41598534          0.55486388          0.40568986          0.0     
O24       O         1.0     -0.0840263          0.55476167          0.40784318          0.0     
O25       O         1.0     0.41591129          0.05469583          0.43834284          0.0     
O26       O         1.0     -0.08410249         0.05470909          0.43862301          0.0     
O27       O         1.0     0.15947378          0.36181991          0.50309864          0.0     
O28       O         1.0     0.67254661          0.36182252          0.50309963          0.0     
O29       O         1.0     0.15941145          0.74756399          0.50315383          0.0     
O30       O         1.0     0.67262805          0.74755062          0.50316108          0.0     
O31       O         1.0     0.41606185          0.05473716          0.55106309          0.0     
O32       O         1.0     -0.08395614         0.05476495          0.5522203           0.0     
V1        V         1.0     0.41591489          0.05480134          0.05820326          0.0     
V2        V         1.0     -0.08408511         0.05480134          0.05820326          0.0     
V3        V         1.0     0.16591489          0.55480134          0.05820326          0.0     
V4        V         1.0     0.66591489          0.55480134          0.05820326          0.0     
V5        V         1.0     0.16591489          0.05480134          0.20303793          0.0     
V6        V         1.0     0.66591489          0.05480134          0.20303793          0.0     
V7        V         1.0     0.41591489          0.55480134          0.20303793          0.0     
V8        V         1.0     -0.08408511         0.55480134          0.20303793          0.0     
V9        V         1.0     0.41605354          0.05480552          0.35340653          0.0     
V10       V         1.0     -0.08396413         0.05480468          0.35298714          0.0     
V11       V         1.0     0.16550855          0.55484252          0.34465131          0.0     
V12       V         1.0     0.66658451          0.55484483          0.34465511          0.0     
V13       V         1.0     0.16407207          0.05474959          0.50242895          0.0     
V14       V         1.0     0.66819018          0.0547524           0.50243411          0.0     
V15       V         1.0     -0.08398635         0.55467273          0.48615506          0.0     
Ti1       Ti        1.0     0.41601047          0.55480557          0.48726582          0.0     
