data_OVRu
_audit_creation_method        'pos2cif.py by jyxu'
_cell_length_a                5.64711014          
_cell_length_b                6.450147843790429   
_cell_length_c                22.267278180501698  
_cell_angle_alpha             90.0                
_cell_angle_beta              90.0                
_cell_angle_gamma             90.0                
_symmetry_space_group_H-M     'P1'                
_symmetry_Int_Tables_number   '1'                 
_symmetry_cell_setting        'triclinic'         
loop_                         
_symmetry_equiv_pos_as_xyz    
x,y,z                         

loop_                         
_atom_site_label              
_atom_site_type_symbol        
_atom_site_occupancy          
_atom_site_fract_x            
_atom_site_fract_y            
_atom_site_fract_z            
_atom_site_U_iso_or_equiv     
O1        O         1.0     0.41591489          0.55480134          0.0                 0.0     
O2        O         1.0     -0.08408511         0.55480134          0.0                 0.0     
O3        O         1.0     0.16591489          0.25573134          0.05820326          0.0     
O4        O         1.0     0.66591489          0.25573134          0.05820326          0.0     
O5        O         1.0     0.16591489          0.85387134          0.05820326          0.0     
O6        O         1.0     0.66591489          0.85387134          0.05820326          0.0     
O7        O         1.0     0.41591489          0.55480134          0.11640652          0.0     
O8        O         1.0     -0.08408511         0.55480134          0.11640652          0.0     
O9        O         1.0     0.41591489          0.05480134          0.14483467          0.0     
O10       O         1.0     -0.08408511         0.05480134          0.14483467          0.0     
O11       O         1.0     0.16591489          0.35387134          0.20303793          0.0     
O12       O         1.0     0.66591489          0.35387134          0.20303793          0.0     
O13       O         1.0     0.16591489          0.75573134          0.20303793          0.0     
O14       O         1.0     0.66591489          0.75573134          0.20303793          0.0     
O15       O         1.0     0.41591489          0.05480134          0.26124119          0.0     
O16       O         1.0     -0.08408511         0.05480134          0.26124119          0.0     
O17       O         1.0     0.4159612           0.55480637          0.28778051          0.0     
O18       O         1.0     -0.08404216         0.55473219          0.29014335          0.0     
O19       O         1.0     0.1662354           0.25586625          0.34863065          0.0     
O20       O         1.0     0.66519498          0.25583266          0.34862806          0.0     
O21       O         1.0     0.16613616          0.85367467          0.34863818          0.0     
O22       O         1.0     0.66516079          0.85371668          0.34863638          0.0     
O23       O         1.0     0.41594114          0.55477113          0.40595637          0.0     
O24       O         1.0     -0.08403643         0.55473341          0.40461973          0.0     
O25       O         1.0     0.41584068          0.05482973          0.43844785          0.0     
O26       O         1.0     -0.08420487         0.05489943          0.43722188          0.0     
O27       O         1.0     0.14969405          0.35714149          0.50095904          0.0     
O28       O         1.0     0.68241207          0.35715941          0.50097912          0.0     
O29       O         1.0     0.14972111          0.75269199          0.50091496          0.0     
O30       O         1.0     0.68238886          0.75266246          0.50093845          0.0     
O31       O         1.0     0.41607696          0.05484641          0.55101033          0.0     
O32       O         1.0     -0.08390469         0.05486573          0.55156657          0.0     
V1        V         1.0     0.41591489          0.05480134          0.05820326          0.0     
V2        V         1.0     -0.08408511         0.05480134          0.05820326          0.0     
V3        V         1.0     0.16591489          0.55480134          0.05820326          0.0     
V4        V         1.0     0.66591489          0.55480134          0.05820326          0.0     
V5        V         1.0     0.16591489          0.05480134          0.20303793          0.0     
V6        V         1.0     0.66591489          0.05480134          0.20303793          0.0     
V7        V         1.0     0.41591489          0.55480134          0.20303793          0.0     
V8        V         1.0     -0.08408511         0.55480134          0.20303793          0.0     
V9        V         1.0     0.41618884          0.05478099          0.3527794           0.0     
V10       V         1.0     -0.08371399         0.0547854           0.3534442           0.0     
V11       V         1.0     0.17487603          0.55477996          0.34488884          0.0     
V12       V         1.0     0.6575691           0.55477761          0.34481839          0.0     
V13       V         1.0     0.16514802          0.05490393          0.5019592           0.0     
V14       V         1.0     0.66737063          0.0549048           0.50189339          0.0     
V15       V         1.0     -0.08394115         0.55491769          0.48266705          0.0     
Ru1       Ru        1.0     0.41607173          0.55485241          0.49005683          0.0     
