data_OV
_audit_creation_method        'pos2cif.py by jyxu'
_cell_length_a                5.64711014          
_cell_length_b                6.450147843790429   
_cell_length_c                22.267278180501698  
_cell_angle_alpha             90.0                
_cell_angle_beta              90.0                
_cell_angle_gamma             90.0                
_symmetry_space_group_H-M     'P1'                
_symmetry_Int_Tables_number   '1'                 
_symmetry_cell_setting        'triclinic'         
loop_                         
_symmetry_equiv_pos_as_xyz    
x,y,z                         

loop_                         
_atom_site_label              
_atom_site_type_symbol        
_atom_site_occupancy          
_atom_site_fract_x            
_atom_site_fract_y            
_atom_site_fract_z            
_atom_site_U_iso_or_equiv     
O1        O         1.0     0.41591489          0.55480134          0.0                 0.0     
O2        O         1.0     -0.08408511         0.55480134          0.0                 0.0     
O3        O         1.0     0.16591489          0.25573134          0.05820326          0.0     
O4        O         1.0     0.66591489          0.25573134          0.05820326          0.0     
O5        O         1.0     0.16591489          0.85387134          0.05820326          0.0     
O6        O         1.0     0.66591489          0.85387134          0.05820326          0.0     
O7        O         1.0     0.41591489          0.55480134          0.11640652          0.0     
O8        O         1.0     -0.08408511         0.55480134          0.11640652          0.0     
O9        O         1.0     0.41591489          0.05480134          0.14483467          0.0     
O10       O         1.0     -0.08408511         0.05480134          0.14483467          0.0     
O11       O         1.0     0.16591489          0.35387134          0.20303793          0.0     
O12       O         1.0     0.66591489          0.35387134          0.20303793          0.0     
O13       O         1.0     0.16591489          0.75573134          0.20303793          0.0     
O14       O         1.0     0.66591489          0.75573134          0.20303793          0.0     
O15       O         1.0     0.41591489          0.05480134          0.26124119          0.0     
O16       O         1.0     -0.08408511         0.05480134          0.26124119          0.0     
O17       O         1.0     0.41599355          0.5547949           0.28893227          0.0     
O18       O         1.0     -0.08400641         0.55479494          0.28893226          0.0     
O19       O         1.0     0.16593259          0.25640212          0.34923227          0.0     
O20       O         1.0     0.66593169          0.256402            0.34923228          0.0     
O21       O         1.0     0.1658995           0.85320023          0.34921474          0.0     
O22       O         1.0     0.66589858          0.85320034          0.34921474          0.0     
O23       O         1.0     0.41595196          0.55478936          0.4069541           0.0     
O24       O         1.0     -0.08404784         0.55478936          0.40695444          0.0     
O25       O         1.0     0.41596341          0.05468192          0.43837264          0.0     
O26       O         1.0     -0.08403653         0.05468192          0.43837269          0.0     
O27       O         1.0     0.1659655           0.36397499          0.50211037          0.0     
O28       O         1.0     0.66596479          0.36397494          0.50211033          0.0     
O29       O         1.0     0.1659575           0.74533507          0.5021251           0.0     
O30       O         1.0     0.6659568           0.74533513          0.50212506          0.0     
O31       O         1.0     0.41603193          0.05470581          0.55142261          0.0     
O32       O         1.0     -0.08396813         0.05470581          0.55142247          0.0     
V1        V         1.0     0.41591489          0.05480134          0.05820326          0.0     
V2        V         1.0     -0.08408511         0.05480134          0.05820326          0.0     
V3        V         1.0     0.16591489          0.55480134          0.05820326          0.0     
V4        V         1.0     0.66591489          0.55480134          0.05820326          0.0     
V5        V         1.0     0.16591489          0.05480134          0.20303793          0.0     
V6        V         1.0     0.66591489          0.05480134          0.20303793          0.0     
V7        V         1.0     0.41591489          0.55480134          0.20303793          0.0     
V8        V         1.0     -0.08408511         0.55480134          0.20303793          0.0     
V9        V         1.0     0.4160261           0.05484867          0.35310264          0.0     
V10       V         1.0     -0.083974           0.05484867          0.35310276          0.0     
V11       V         1.0     0.16602568          0.55489517          0.34441364          0.0     
V12       V         1.0     0.66602629          0.55489517          0.34441364          0.0     
V13       V         1.0     0.16605595          0.05471869          0.50213499          0.0     
V14       V         1.0     0.66605727          0.0547187           0.50213489          0.0     
V15       V         1.0     0.41594673          0.55468494          0.48528965          0.0     
V16       V         1.0     -0.08405327         0.55468493          0.48528999          0.0     
